* NGSPICE file created from pmu_tagwave.ext - technology: ihp-sg13g2

.subckt pmu_tagwave VR VFB Vbg VDD VSS IOVDD
X0 VR.t10 beta_multiplier_0.beta_multiplier_startup_0.beta_multiplier_startup_enable_0.VS1.t4 ldo_brahim_0.I_Bias.t10 VSS.t64 sg13_hv_nmos ad=3.4p pd=20.68u as=3.4p ps=20.68u w=10u l=0.45u
X1 VSS.t160 VSS.t63 VSS.t159 VSS.t46 sg13_hv_nmos ad=3.4p pd=20.68u as=0 ps=0 w=10u l=0.45u
X2 a_6646_7350.t0 a_8732_8406.t0 VSS.t1 rhigh l=10u w=0.5u
X3 ldo_brahim_0.ldo_brahim_opamp_2_stage_0/ldo_brahim_tail_0.tail.t2 ldo_brahim_0.I_Bias.t16 IOVDD.t27 IOVDD.t3 sg13_hv_pmos ad=1.9p pd=10.38u as=1.9p ps=10.38u w=10u l=2u
X4 IOVDD.t178 IOVDD.t75 IOVDD.t177 IOVDD.t57 sg13_hv_pmos ad=0.17p pd=1.68u as=0 ps=0 w=0.5u l=3u
X5 VR.t9 beta_multiplier_0.beta_multiplier_startup_0.beta_multiplier_startup_enable_0.VS1.t4 ldo_brahim_0.I_Bias.t12 VSS.t64 sg13_hv_nmos ad=3.4p pd=20.68u as=3.4p ps=20.68u w=10u l=0.45u
X6 IOVDD.t175 IOVDD.t144 IOVDD.t174 IOVDD.t1 sg13_hv_pmos ad=1.7p pd=10.68u as=0 ps=0 w=5u l=1u
X7 IOVDD.t217 bgr_djalal_0.bgr_djalal_ota_1_stage_0.Vout1.t5 cap_cmim l=7u w=7u
X8 ldo_brahim_0.I_Bias.t13 beta_multiplier_0.beta_multiplier_startup_0.beta_multiplier_startup_enable_0.VS1.t5 VR.t8 VSS.t64 sg13_hv_nmos ad=3.4p pd=20.68u as=3.4p ps=20.68u w=10u l=0.45u
X9 a_8732_8142.t1 a_11060_8142.t0 VSS.t1 rhigh l=10u w=0.5u
X10 VDD.t1 ldo_brahim_0.ldo_brahim_pass_element2_0.VG2.t10 IOVDD.t210 VSS.t184 sg13_hv_nmos ad=1.9p pd=10.38u as=1.9p ps=10.38u w=10u l=0.45u
X11 IOVDD.t172 IOVDD.t97 IOVDD.t171 IOVDD.t3 sg13_hv_pmos ad=1.7p pd=10.68u as=0 ps=0 w=5u l=2u
X12 IOVDD.t218 bgr_djalal_0.bgr_djalal_ota_1_stage_0.Vout1.t10 cap_cmim l=7u w=7u
X13 IOVDD.t169 IOVDD.t36 IOVDD.t27 IOVDD.t3 sg13_hv_pmos ad=1.9p pd=10.38u as=0 ps=0 w=10u l=2u
X14 ldo_brahim_0.I_Bias.t5 beta_multiplier_0.beta_multiplier_startup_0.beta_multiplier_startup_enable_0.VS1.t5 VR.t7 VSS.t46 sg13_hv_nmos ad=3.4p pd=20.68u as=3.4p ps=20.68u w=10u l=0.45u
X15 a_5046_11016.t1 a_5310_7848.t0 VSS.t4 rhigh l=15.41u w=0.5u
X16 a_11060_7350.t0 a_13388_7350.t1 VSS.t1 rhigh l=10u w=0.5u
X17 VSS.t157 VSS.t43 VSS.t31 VSS.t56 sg13_hv_nmos ad=2.55p pd=15.68u as=0 ps=0 w=7.5u l=1u
X18 ldo_brahim_0.ldo_brahim_opamp_2_stage_0/ldo_brahim_cs_0.VG.t1 Vbg.t4 ldo_brahim_0.ldo_brahim_opamp_2_stage_0/ldo_brahim_tail_0.tail.t3 IOVDD.t3 sg13_hv_pmos ad=1.7p pd=10.68u as=1.7p ps=10.68u w=5u l=2u
X19 beta_multiplier_0.beta_multiplier_startup_0.beta_multiplier_startup_enable_0.VS1.t0 beta_multiplier_0.beta_multiplier_startup_0.beta_multiplier_startup_mirror_0.VS2.t3 IOVDD.t2 IOVDD.t1 sg13_hv_pmos ad=1.7p pd=10.68u as=1.7p ps=10.68u w=5u l=1u
X20 IOVDD.t166 IOVDD.t161 IOVDD.t165 IOVDD.t126 sg13_hv_pmos ad=0.68p pd=4.68u as=0 ps=0 w=2u l=1u
X21 IOVDD.t195 ldo_brahim_0.ldo_brahim_pass_element2_0.VG2.t10 VDD.t22 VSS.t185 sg13_hv_nmos ad=1.9p pd=10.38u as=1.9p ps=10.38u w=10u l=0.45u
X22 IOVDD.t163 IOVDD.t161 IOVDD.t162 IOVDD.t126 sg13_hv_pmos ad=0.68p pd=4.68u as=0 ps=0 w=2u l=1u
X23 a_13630_7878.t1 a_15716_7614.t1 VSS.t0 rhigh l=10u w=0.5u
X24 IOVDD.t188 bgr_djalal_0.bgr_djalal_ota_1_stage_0.Vout1.t11 Vbg.t3 IOVDD.t126 sg13_hv_pmos ad=0.17p pd=1.68u as=0.17p ps=1.68u w=0.5u l=3u
X25 a_13630_7878.t0 a_15716_8142.t1 VSS.t0 rhigh l=10u w=0.5u
X26 ldo_brahim_0.I_Bias.t15 beta_multiplier_0.beta_multiplier_mirror_0.VN.t3 VR.t11 VSS.t46 sg13_hv_nmos ad=1.9p pd=10.38u as=3.4p ps=20.68u w=10u l=1u
X27 ldo_brahim_0.ldo_brahim_opamp_2_stage_0/ldo_brahim_cs_0.VG.t4 a_5183_1757.t1 cap_cmim l=28u w=9u
X28 a_2835_2443.t0 a_4959_2576.t0 VSS.t9 rhigh l=9u w=0.5u
X29 ldo_brahim_0.ldo_brahim_pass_element2_0.VG2.t1 ldo_brahim_0.I_Bias.t17 IOVDD.t16 IOVDD.t3 sg13_hv_pmos ad=1.9p pd=10.38u as=1.9p ps=10.38u w=10u l=2u
X30 VSS.t33 VSS.t43 VSS.t33 VSS.t92 sg13_hv_nmos ad=2.7p pd=8.22u as=0 ps=0 w=7.5u l=1u
X31 IOVDD.t216 ldo_brahim_0.ldo_brahim_pass_element2_0.VG2.t10 VDD.t28 VSS.t185 sg13_hv_nmos ad=3.4p pd=20.68u as=1.9p ps=10.38u w=10u l=0.45u
X32 IOVDD.t160 IOVDD.t32 IOVDD.t159 IOVDD.t33 sg13_hv_pmos ad=3.4p pd=20.68u as=0 ps=0 w=10u l=5u
X33 VSS.t6 VSS.t7 VSS.t1 rhigh l=10u w=0.5u
X34 IOVDD.t204 ldo_brahim_0.ldo_brahim_pass_element2_0.VG2.t10 VDD.t27 VSS.t187 sg13_hv_nmos ad=1.9p pd=10.38u as=1.9p ps=10.38u w=10u l=0.45u
X35 VDD.t13 ldo_brahim_0.ldo_brahim_pass_element2_0.VG2.t10 IOVDD.t204 VSS.t187 sg13_hv_nmos ad=1.9p pd=10.38u as=1.9p ps=10.38u w=10u l=0.45u
X36 IOVDD.t157 IOVDD.t155 IOVDD.t14 IOVDD.t156 sg13_hv_pmos ad=3.4p pd=20.68u as=0 ps=0 w=10u l=2u
X37 VSS.t152 VSS.t49 VSS.t151 VSS.t17 sg13_hv_nmos ad=0.34p pd=2.68u as=0 ps=0 w=1u l=10u
X38 a_15958_7878.t0 a_18044_7614.t0 VSS.t8 rhigh l=10u w=0.5u
X39 ldo_brahim_0.ldo_brahim_pass_element2_0.VG2.t9 ldo_brahim_0.ldo_brahim_opamp_2_stage_0/ldo_brahim_cs_0.VG.t5 VSS.t125 VSS.t180 sg13_hv_nmos ad=1.9p pd=10.38u as=1.9p ps=10.38u w=10u l=2u
X40 ldo_brahim_0.ldo_brahim_opamp_2_stage_0/ldo_brahim_cs_0.VG.t6 a_5183_1757.t0 cap_cmim l=27u w=45u
X41 a_2835_2443.t1 ldo_brahim_0.ldo_brahim_pass_element2_0.VG2.t5 VSS.t25 rhigh l=3u w=0.5u
X42 bgr_djalal_0.bgr_djalal_ota_1_stage_0.bgr_djalal_ota_tail_0.tail.t6 bgr_djalal_0.bgr_djalal_ota_1_stage_0.VN.t4 bgr_djalal_0.bgr_djalal_ota_1_stage_0.Vout1.t0 IOVDD.t31 sg13_hv_pmos ad=3.4p pd=20.68u as=3.4p ps=20.68u w=10u l=5u
X43 VSS.t18 bgr_djalal_0.bgr_djalal_ota_1_stage_0.bgr_djalal_ota_mirror_0.Iref.t2 bgr_djalal_0.bgr_djalal_ota_1_stage_0.Vout1.t3 VSS.t17 sg13_hv_nmos ad=0.34p pd=2.68u as=0.34p ps=2.68u w=1u l=10u
X44 a_15958_7878.t1 bgr_djalal_0.bgr_djalal_ota_1_stage_0.VP.t3 VSS.t8 rhigh l=10u w=0.5u
X45 VSS.t149 VSS.t111 VSS.t148 VSS.t112 sg13_hv_nmos ad=3.4p pd=20.68u as=0 ps=0 w=10u l=2u
X46 VSS.t146 VSS.t127 VSS.t145 VSS.t128 sg13_hv_nmos ad=0.34p pd=2.68u as=0 ps=0 w=1u l=10u
X47 VSS.t116 VR.t15 beta_multiplier_0.beta_multiplier_mirror_0.VN.t2 VSS.t64 sg13_hv_nmos ad=1.9p pd=10.38u as=1.9p ps=10.38u w=10u l=1u
X48 IOVDD.t219 bgr_djalal_0.bgr_djalal_ota_1_stage_0.Vout1.t9 cap_cmim l=7u w=7u
X49 IOVDD.t154 IOVDD.t75 IOVDD.t153 IOVDD.t57 sg13_hv_pmos ad=0.17p pd=1.68u as=0 ps=0 w=0.5u l=3u
X50 VSS.t33 bgr_djalal_0.bgr_djalal_resistors_0.VP1.t3 bgr_djalal_0.bgr_djalal_resistors_0.VP1.t4 VSS.t32 sg13_hv_nmos ad=2.7p pd=8.22u as=2.55p ps=15.68u w=7.5u l=4u
X51 VDD.t28 ldo_brahim_0.ldo_brahim_pass_element2_0.VG2.t10 IOVDD.t213 VSS.t185 sg13_hv_nmos ad=1.9p pd=10.38u as=1.9p ps=10.38u w=10u l=0.45u
X52 VSS.t143 VSS.t59 VSS.t142 VSS.t60 sg13_hv_nmos ad=3.4p pd=20.68u as=0 ps=0 w=10u l=2u
X53 IOVDD.t151 IOVDD.t119 IOVDD.t150 IOVDD.t1 sg13_hv_pmos ad=1.7p pd=10.68u as=0 ps=0 w=5u l=1u
X54 ldo_brahim_0.ldo_brahim_pass_element2_0.VG2.t8 ldo_brahim_0.ldo_brahim_opamp_2_stage_0/ldo_brahim_cs_0.VG.t5 VSS.t122 VSS.t180 sg13_hv_nmos ad=1.9p pd=10.38u as=1.9p ps=10.38u w=10u l=2u
X55 ldo_brahim_0.ldo_brahim_opamp_2_stage_0/ldo_brahim_tail_0.tail.t4 Vbg.t5 ldo_brahim_0.ldo_brahim_opamp_2_stage_0/ldo_brahim_cs_0.VG.t0 IOVDD.t3 sg13_hv_pmos ad=1.7p pd=10.68u as=1.7p ps=10.68u w=5u l=2u
X56 a_5838_14426.t1 a_5574_11258.t1 VSS.t4 rhigh l=15.41u w=0.5u
X57 a_13630_7350.t0 a_15716_7614.t0 VSS.t0 rhigh l=10u w=0.5u
X58 beta_multiplier_0.beta_multiplier_startup_0.beta_multiplier_startup_mirror_0.VS2.t4 VSS.t21 cap_cmim l=6.63u w=10u
X59 IOVDD.t20 IOVDD.t87 IOVDD.t148 IOVDD.t3 sg13_hv_pmos ad=3.4p pd=20.68u as=0 ps=0 w=10u l=2u
X60 IOVDD.t146 IOVDD.t144 IOVDD.t145 IOVDD.t1 sg13_hv_pmos ad=1.7p pd=10.68u as=0 ps=0 w=5u l=1u
X61 ldo_brahim_0.ldo_brahim_opamp_2_stage_0/ldo_brahim_cs_0.VG.t3 ldo_brahim_0.ldo_brahim_opamp_2_stage_0/ldo_brahim_mirror_0.i_ref.t2 VSS.t40 VSS.t35 sg13_hv_nmos ad=3.4p pd=20.68u as=3.4p ps=20.68u w=10u l=2u
X62 ldo_brahim_0.ldo_brahim_opamp_2_stage_0/ldo_brahim_tail_0.tail.t1 ldo_brahim_0.I_Bias.t17 IOVDD.t10 IOVDD.t3 sg13_hv_pmos ad=1.9p pd=10.38u as=1.9p ps=10.38u w=10u l=2u
X63 IOVDD.t23 ldo_brahim_0.I_Bias.t18 bgr_djalal_0.bgr_djalal_ota_1_stage_0.bgr_djalal_ota_tail_0.tail.t1 IOVDD.t24 sg13_hv_pmos ad=1.9p pd=10.38u as=1.9p ps=10.38u w=10u l=2u
X64 VR.t6 beta_multiplier_0.beta_multiplier_startup_0.beta_multiplier_startup_enable_0.VS1.t5 ldo_brahim_0.I_Bias.t8 VSS.t46 sg13_hv_nmos ad=3.4p pd=20.68u as=3.4p ps=20.68u w=10u l=0.45u
X65 VSS.t167 VSS.t168 VSS.t1 rhigh l=10u w=0.5u
X66 VSS.t42 a_4959_2048.t0 VSS.t41 rhigh l=9u w=0.5u
X67 ldo_brahim_0.I_Bias.t6 beta_multiplier_0.beta_multiplier_startup_0.beta_multiplier_startup_enable_0.VS1.t4 VR.t5 VSS.t64 sg13_hv_nmos ad=3.4p pd=20.68u as=3.4p ps=20.68u w=10u l=0.45u
X68 a_5574_11016.t1 a_5838_7848.t1 VSS.t4 rhigh l=15.41u w=0.5u
X69 VSS.t140 VSS.t137 VSS.t139 VSS.t138 sg13_hv_nmos ad=1.36p pd=8.68u as=0 ps=0 w=4u l=2u
X70 IOVDD.t220 bgr_djalal_0.bgr_djalal_ota_1_stage_0.Vout1.t8 cap_cmim l=7u w=7u
X71 VDD.t8 ldo_brahim_0.ldo_brahim_pass_element2_0.VG2.t10 IOVDD.t211 VSS.t184 sg13_hv_nmos ad=1.9p pd=10.38u as=1.9p ps=10.38u w=10u l=0.45u
X72 IOVDD.t215 ldo_brahim_0.ldo_brahim_pass_element2_0.VG2.t10 VDD.t26 VSS.t185 sg13_hv_nmos ad=3.4p pd=20.68u as=1.9p ps=10.38u w=10u l=0.45u
X73 IOVDD.t211 ldo_brahim_0.ldo_brahim_pass_element2_0.VG2.t10 VDD.t24 VSS.t184 sg13_hv_nmos ad=1.9p pd=10.38u as=1.9p ps=10.38u w=10u l=0.45u
X74 IOVDD.t187 bgr_djalal_0.bgr_djalal_ota_1_stage_0.Vout1.t11 bgr_djalal_0.bgr_djalal_ota_1_stage_0.VP.t2 IOVDD.t126 sg13_hv_pmos ad=0.17p pd=1.68u as=0.17p ps=1.68u w=0.5u l=3u
X75 VSS.t110 VSS.t107 VSS.t109 VSS.t108 sg13_hv_nmos ad=1.36p pd=8.68u as=0 ps=0 w=4u l=2u
X76 a_15716_7350.t1 a_18044_7614.t1 VSS.t8 rhigh l=10u w=0.5u
X77 IOVDD.t143 IOVDD.t141 IOVDD.t142 IOVDD.t43 sg13_hv_pmos ad=0.68p pd=4.68u as=0 ps=0 w=2u l=1u
X78 VDD.t27 ldo_brahim_0.ldo_brahim_pass_element2_0.VG2.t10 IOVDD.t214 VSS.t187 sg13_hv_nmos ad=1.9p pd=10.38u as=1.9p ps=10.38u w=10u l=0.45u
X79 IOVDD.t140 IOVDD.t39 IOVDD.t139 IOVDD.t1 sg13_hv_pmos ad=1.7p pd=10.68u as=0 ps=0 w=5u l=1u
X80 a_8732_8406.t1 a_11060_8670.t1 VSS.t1 rhigh l=10u w=0.5u
X81 a_3073_1784.t1 a_4959_2048.t1 VSS.t174 rhigh l=9u w=0.5u
X82 VSS.t5 a_5838_7848.t0 VSS.t4 rhigh l=15.41u w=0.5u
X83 Vbg.t2 bgr_djalal_0.bgr_djalal_ota_1_stage_0.Vout1.t11 IOVDD.t186 IOVDD.t43 sg13_hv_pmos ad=0.17p pd=1.68u as=0.17p ps=1.68u w=0.5u l=3u
X84 VSS.t136 VSS.t45 VSS.t135 VSS.t64 sg13_hv_nmos ad=3.4p pd=20.68u as=0 ps=0 w=10u l=0.45u
X85 VSS.t162 IOVDD.t60 bgr_djalal_0.bgr_djalal_start_up_0.bgr_djalal_start_up_mirror_0.Iref.t4 IOVDD.t126 sg13_hv_pmos ad=0.68p pd=4.68u as=0.68p ps=4.68u w=2u l=1u
X86 VSS.t29 bgr_djalal_0.bgr_djalal_ota_1_stage_0.VN.t2 bgr_djalal_0.bgr_djalal_ota_1_stage_0.VN.t3 VSS.t28 sg13_hv_nmos ad=2.55p pd=15.68u as=2.55p ps=15.68u w=7.5u l=4u
X87 VSS.t88 ldo_brahim_0.ldo_brahim_opamp_2_stage_0/ldo_brahim_cs_0.VG.t7 ldo_brahim_0.ldo_brahim_pass_element2_0.VG2.t7 VSS.t182 sg13_hv_nmos ad=1.9p pd=10.38u as=1.9p ps=10.38u w=10u l=2u
X88 IOVDD.t221 bgr_djalal_0.bgr_djalal_ota_1_stage_0.Vout1.t7 cap_cmim l=7u w=7u
X89 a_4782_14426.t0 a_5046_11258.t1 VSS.t4 rhigh l=15.41u w=0.5u
X90 VDD.t26 ldo_brahim_0.ldo_brahim_pass_element2_0.VG2.t10 IOVDD.t195 VSS.t185 sg13_hv_nmos ad=1.9p pd=10.38u as=1.9p ps=10.38u w=10u l=0.45u
X91 bgr_djalal_0.bgr_djalal_ota_1_stage_0.bgr_djalal_ota_tail_0.tail.t4 bgr_djalal_0.bgr_djalal_ota_1_stage_0.VP.t4 bgr_djalal_0.bgr_djalal_ota_1_stage_0.bgr_djalal_ota_mirror_0.Iref.t1 IOVDD.t31 sg13_hv_pmos ad=3.4p pd=20.68u as=3.4p ps=20.68u w=10u l=5u
X92 VSS.t57 VSS.t43 VSS.t57 VSS.t30 sg13_hv_nmos ad=2.7p pd=8.22u as=0 ps=0 w=7.5u l=4u
X93 bgr_djalal_0.bgr_djalal_ota_1_stage_0.Vout1.t2 bgr_djalal_0.bgr_djalal_ota_1_stage_0.bgr_djalal_ota_mirror_0.Iref.t2 VSS.t16 VSS.t14 sg13_hv_nmos ad=0.34p pd=2.68u as=0.34p ps=2.68u w=1u l=10u
X94 IOVDD.t214 ldo_brahim_0.ldo_brahim_pass_element2_0.VG2.t10 VDD.t25 VSS.t187 sg13_hv_nmos ad=1.9p pd=10.38u as=3.4p ps=20.68u w=10u l=0.45u
X95 a_11302_8142.t0 a_13388_8406.t0 VSS.t1 rhigh l=10u w=0.5u
X96 VSS.t82 ldo_brahim_0.ldo_brahim_opamp_2_stage_0/ldo_brahim_cs_0.VG.t7 ldo_brahim_0.ldo_brahim_pass_element2_0.VG2.t6 VSS.t182 sg13_hv_nmos ad=1.9p pd=10.38u as=1.9p ps=10.38u w=10u l=2u
X97 bgr_djalal_0.bgr_djalal_ota_1_stage_0.bgr_djalal_ota_tail_0.tail.t3 ldo_brahim_0.I_Bias.t18 IOVDD.t23 IOVDD.t22 sg13_hv_pmos ad=1.9p pd=10.38u as=1.9p ps=10.38u w=10u l=2u
X98 ldo_brahim_0.I_Bias.t0 VSS.t131 ldo_brahim_0.I_Bias.t0 VSS.t64 sg13_hv_nmos ad=1.9p pd=10.38u as=0 ps=0 w=10u l=1u
X99 a_5838_14426.t0 VR.t0 VSS.t4 rhigh l=15.41u w=0.5u
X100 IOVDD.t192 ldo_brahim_0.ldo_brahim_pass_element2_0.VG2.t10 VDD.t14 VSS.t185 sg13_hv_nmos ad=1.9p pd=10.38u as=1.9p ps=10.38u w=10u l=0.45u
X101 IOVDD.t136 IOVDD.t61 IOVDD.t135 IOVDD.t62 sg13_hv_pmos ad=0.17p pd=1.68u as=0 ps=0 w=0.5u l=3u
X102 VDD.t24 ldo_brahim_0.ldo_brahim_pass_element2_0.VG2.t10 IOVDD.t196 VSS.t184 sg13_hv_nmos ad=1.9p pd=10.38u as=1.9p ps=10.38u w=10u l=0.45u
X103 IOVDD.t30 beta_multiplier_0.beta_multiplier_startup_0.beta_multiplier_startup_mirror_0.VS2.t0 beta_multiplier_0.beta_multiplier_startup_0.beta_multiplier_startup_enable_0.VS1.t1 IOVDD.t1 sg13_hv_pmos ad=1.7p pd=10.68u as=1.7p ps=10.68u w=5u l=1u
X104 a_6646_7878.t1 a_8732_7614.t0 VSS.t1 rhigh l=10u w=0.5u
X105 IOVDD.t194 ldo_brahim_0.ldo_brahim_pass_element2_0.VG2.t10 VDD.t21 VSS.t185 sg13_hv_nmos ad=1.9p pd=10.38u as=1.9p ps=10.38u w=10u l=0.45u
X106 VDD.t2 ldo_brahim_0.ldo_brahim_pass_element2_0.VG2.t10 IOVDD.t194 VSS.t185 sg13_hv_nmos ad=1.9p pd=10.38u as=1.9p ps=10.38u w=10u l=0.45u
X107 a_6646_7878.t0 a_8732_8142.t0 VSS.t1 rhigh l=10u w=0.5u
X108 IOVDD.t133 IOVDD.t53 IOVDD.t132 IOVDD.t3 sg13_hv_pmos ad=1.7p pd=10.68u as=0 ps=0 w=5u l=2u
X109 IOVDD.t11 ldo_brahim_0.I_Bias.t16 ldo_brahim_0.ldo_brahim_pass_element2_0.VG2.t3 IOVDD.t3 sg13_hv_pmos ad=1.9p pd=10.38u as=1.9p ps=10.38u w=10u l=2u
X110 IOVDD.t14 IOVDD.t129 IOVDD.t14 IOVDD.t130 sg13_hv_pmos ad=1.9p pd=10.38u as=0 ps=0 w=10u l=2u
X111 a_5046_11016.t0 a_4782_7848.t1 VSS.t4 rhigh l=15.41u w=0.5u
X112 VSS.t130 VSS.t127 VSS.t129 VSS.t128 sg13_hv_nmos ad=0.34p pd=2.68u as=0 ps=0 w=1u l=10u
X113 VSS.t126 VSS.t120 VSS.t125 VSS.t121 sg13_hv_nmos ad=1.9p pd=10.38u as=0 ps=0 w=10u l=2u
X114 a_8974_7878.t1 a_11060_7614.t1 VSS.t1 rhigh l=10u w=0.5u
X115 a_8974_7878.t0 a_11060_8142.t1 VSS.t1 rhigh l=10u w=0.5u
X116 IOVDD.t196 ldo_brahim_0.ldo_brahim_pass_element2_0.VG2.t10 VDD.t23 VSS.t184 sg13_hv_nmos ad=1.9p pd=10.38u as=3.4p ps=20.68u w=10u l=0.45u
X117 IOVDD.t128 IOVDD.t125 IOVDD.t127 IOVDD.t126 sg13_hv_pmos ad=0.68p pd=4.68u as=0 ps=0 w=2u l=1u
X118 IOVDD.t124 IOVDD.t94 IOVDD.t123 IOVDD.t1 sg13_hv_pmos ad=1.7p pd=10.68u as=0 ps=0 w=5u l=1u
X119 VSS.t123 VSS.t120 VSS.t122 VSS.t121 sg13_hv_nmos ad=1.9p pd=10.38u as=0 ps=0 w=10u l=2u
X120 IOVDD.t202 ldo_brahim_0.ldo_brahim_pass_element2_0.VG2.t10 VDD.t12 VSS.t188 sg13_hv_nmos ad=1.9p pd=10.38u as=1.9p ps=10.38u w=10u l=0.45u
X121 VSS.t119 VSS.t45 VSS.t118 VSS.t64 sg13_hv_nmos ad=3.4p pd=20.68u as=0 ps=0 w=10u l=0.45u
X122 bgr_djalal_0.bgr_djalal_ota_1_stage_0.Vout1.t4 bgr_djalal_0.bgr_djalal_start_up_0.bgr_djalal_start_up_enable_0.Icpy.t3 VSS.t24 VSS.t23 sg13_hv_nmos ad=1.36p pd=8.68u as=1.36p ps=8.68u w=4u l=2u
X123 VDD.t22 ldo_brahim_0.ldo_brahim_pass_element2_0.VG2.t10 IOVDD.t190 VSS.t185 sg13_hv_nmos ad=1.9p pd=10.38u as=1.9p ps=10.38u w=10u l=0.45u
X124 IOVDD.t200 ldo_brahim_0.ldo_brahim_pass_element2_0.VG2.t10 VDD.t11 VSS.t186 sg13_hv_nmos ad=1.9p pd=10.38u as=1.9p ps=10.38u w=10u l=0.45u
X125 bgr_djalal_0.bgr_djalal_resistors_0.VP1.t0 a_8732_7614.t1 VSS.t1 rhigh l=10u w=0.5u
X126 IOVDD.t190 ldo_brahim_0.ldo_brahim_pass_element2_0.VG2.t10 VDD.t18 VSS.t185 sg13_hv_nmos ad=1.9p pd=10.38u as=1.9p ps=10.38u w=10u l=0.45u
X127 IOVDD.t121 IOVDD.t119 IOVDD.t120 IOVDD.t1 sg13_hv_pmos ad=1.7p pd=10.68u as=0 ps=0 w=5u l=1u
X128 IOVDD.t118 IOVDD.t89 IOVDD.t117 IOVDD.t50 sg13_hv_pmos ad=3.4p pd=20.68u as=0 ps=0 w=10u l=5u
X129 IOVDD.t193 ldo_brahim_0.ldo_brahim_pass_element2_0.VG2.t10 VDD.t20 VSS.t185 sg13_hv_nmos ad=3.4p pd=20.68u as=1.9p ps=10.38u w=10u l=0.45u
X130 VSS.t116 VSS.t115 VSS.t116 VSS.t64 sg13_hv_nmos ad=1.9p pd=10.38u as=0 ps=0 w=10u l=1u
X131 VDD.t21 ldo_brahim_0.ldo_brahim_pass_element2_0.VG2.t10 IOVDD.t191 VSS.t185 sg13_hv_nmos ad=1.9p pd=10.38u as=1.9p ps=10.38u w=10u l=0.45u
X132 IOVDD.t93 IOVDD.t114 bgr_djalal_0.bgr_djalal_ota_1_stage_0.bgr_djalal_ota_tail_0.tail.t3 IOVDD.t50 sg13_hv_pmos ad=1.9p pd=10.38u as=1.9p ps=10.38u w=10u l=2u
X133 IOVDD.t113 IOVDD.t108 IOVDD.t112 IOVDD.t69 sg13_hv_pmos ad=0.68p pd=4.68u as=0 ps=0 w=2u l=1u
X134 bgr_djalal_0.bgr_djalal_resistors_0.VP1.t2 bgr_djalal_0.bgr_djalal_resistors_0.VP1.t1 VSS.t31 VSS.t30 sg13_hv_nmos ad=2.55p pd=15.68u as=2.7p ps=8.22u w=7.5u l=4u
X135 VSS.t39 ldo_brahim_0.ldo_brahim_opamp_2_stage_0/ldo_brahim_mirror_0.i_ref.t2 ldo_brahim_0.ldo_brahim_opamp_2_stage_0/ldo_brahim_cs_0.VG.t2 VSS.t37 sg13_hv_nmos ad=3.4p pd=20.68u as=3.4p ps=20.68u w=10u l=2u
X136 IOVDD.t110 IOVDD.t108 IOVDD.t109 IOVDD.t69 sg13_hv_pmos ad=0.68p pd=4.68u as=0 ps=0 w=2u l=1u
X137 bgr_djalal_0.bgr_djalal_start_up_0.bgr_djalal_start_up_enable_0.Icpy.t1 bgr_djalal_0.bgr_djalal_start_up_0.bgr_djalal_start_up_mirror_0.Iref.t0 IOVDD.t182 IOVDD.t43 sg13_hv_pmos ad=0.68p pd=4.68u as=0.68p ps=4.68u w=2u l=1u
X138 a_8974_7350.t0 a_11060_7614.t0 VSS.t1 rhigh l=10u w=0.5u
X139 VSS.t114 VSS.t111 VSS.t113 VSS.t112 sg13_hv_nmos ad=3.4p pd=20.68u as=0 ps=0 w=10u l=2u
X140 beta_multiplier_0.beta_multiplier_mirror_0.VN.t2 VSS.t105 VSS.t106 VSS.t64 sg13_hv_nmos ad=1.9p pd=10.38u as=3.4p ps=20.68u w=10u l=1u
X141 bgr_djalal_0.bgr_djalal_start_up_0.bgr_djalal_start_up_mirror_0.Iref.t2 bgr_djalal_0.bgr_djalal_start_up_0.bgr_djalal_start_up_mirror_0.Iref.t0 IOVDD.t181 IOVDD.t43 sg13_hv_pmos ad=0.68p pd=4.68u as=0.68p ps=4.68u w=2u l=1u
X142 ldo_brahim_0.ldo_brahim_pass_element2_0.VG2.t7 ldo_brahim_0.ldo_brahim_opamp_2_stage_0/ldo_brahim_cs_0.VG.t8 VSS.t173 VSS.t171 sg13_hv_nmos ad=1.9p pd=10.38u as=1.9p ps=10.38u w=10u l=2u
X143 VSS.t2 VSS.t3 VSS.t1 rhigh l=10u w=0.5u
X144 VDD.t20 ldo_brahim_0.ldo_brahim_pass_element2_0.VG2.t10 IOVDD.t192 VSS.t185 sg13_hv_nmos ad=1.9p pd=10.38u as=1.9p ps=10.38u w=10u l=0.45u
X145 bgr_djalal_0.bgr_djalal_ota_1_stage_0.bgr_djalal_ota_mirror_0.Iref.t4 bgr_djalal_0.bgr_djalal_ota_1_stage_0.bgr_djalal_ota_mirror_0.Iref.t2 VSS.t15 VSS.t14 sg13_hv_nmos ad=0.34p pd=2.68u as=0.34p ps=2.68u w=1u l=10u
X146 IOVDD.t191 ldo_brahim_0.ldo_brahim_pass_element2_0.VG2.t10 VDD.t19 VSS.t185 sg13_hv_nmos ad=1.9p pd=10.38u as=3.4p ps=20.68u w=10u l=0.45u
X147 a_5310_14426.t0 a_5046_11258.t0 VSS.t4 rhigh l=15.41u w=0.5u
X148 IOVDD.t222 bgr_djalal_0.bgr_djalal_ota_1_stage_0.Vout1.t8 cap_cmim l=7u w=7u
X149 IOVDD.t8 IOVDD.t87 IOVDD.t107 IOVDD.t3 sg13_hv_pmos ad=3.4p pd=20.68u as=0 ps=0 w=10u l=2u
X150 a_13630_7350.t1 a_15716_7350.t0 VSS.t0 rhigh l=10u w=0.5u
X151 IOVDD.t105 IOVDD.t100 IOVDD.t104 IOVDD.t57 sg13_hv_pmos ad=0.68p pd=4.68u as=0 ps=0 w=2u l=1u
X152 a_3073_1784.t0 VFB.t0 VSS.t34 rhigh l=9u w=0.5u
X153 IOVDD.t20 ldo_brahim_0.I_Bias.t17 ldo_brahim_0.ldo_brahim_pass_element2_0.VG2.t2 IOVDD.t3 sg13_hv_pmos ad=1.9p pd=10.38u as=1.9p ps=10.38u w=10u l=2u
X154 IOVDD.t102 IOVDD.t100 IOVDD.t101 IOVDD.t57 sg13_hv_pmos ad=0.68p pd=4.68u as=0 ps=0 w=2u l=1u
X155 VSS.t104 VSS.t43 VSS.t44 VSS.t56 sg13_hv_nmos ad=2.55p pd=15.68u as=0 ps=0 w=7.5u l=1u
X156 ldo_brahim_0.ldo_brahim_pass_element2_0.VG2.t6 ldo_brahim_0.ldo_brahim_opamp_2_stage_0/ldo_brahim_cs_0.VG.t8 VSS.t172 VSS.t171 sg13_hv_nmos ad=1.9p pd=10.38u as=1.9p ps=10.38u w=10u l=2u
X157 VDD.t18 ldo_brahim_0.ldo_brahim_pass_element2_0.VG2.t10 IOVDD.t189 VSS.t185 sg13_hv_nmos ad=1.9p pd=10.38u as=1.9p ps=10.38u w=10u l=0.45u
X158 IOVDD.t206 ldo_brahim_0.ldo_brahim_pass_element2_0.VG2.t10 VDD.t16 VSS.t188 sg13_hv_nmos ad=3.4p pd=20.68u as=1.9p ps=10.38u w=10u l=0.45u
X159 IOVDD.t99 IOVDD.t97 IOVDD.t98 IOVDD.t3 sg13_hv_pmos ad=1.7p pd=10.68u as=0 ps=0 w=5u l=2u
X160 IOVDD.t223 bgr_djalal_0.bgr_djalal_ota_1_stage_0.Vout1.t7 cap_cmim l=7u w=7u
X161 IOVDD.t205 ldo_brahim_0.ldo_brahim_pass_element2_0.VG2.t10 VDD.t15 VSS.t186 sg13_hv_nmos ad=3.4p pd=20.68u as=1.9p ps=10.38u w=10u l=0.45u
X162 IOVDD.t96 IOVDD.t94 IOVDD.t95 IOVDD.t1 sg13_hv_pmos ad=1.7p pd=10.68u as=0 ps=0 w=5u l=1u
X163 a_15716_7086.t1 VSS.t166 VSS.t8 rhigh l=10u w=0.5u
X164 a_11060_7086.t0 a_15716_7086.t0 VSS.t0 rhigh l=10u w=0.5u
X165 IOVDD.t221 bgr_djalal_0.bgr_djalal_ota_1_stage_0.Vout1.t6 cap_cmim l=7u w=7u
X166 a_4959_2576.t1 a_5183_1757.t2 VSS.t25 rhigh l=3u w=0.5u
X167 IOVDD.t93 IOVDD.t92 IOVDD.t93 IOVDD.t50 sg13_hv_pmos ad=1.9p pd=10.38u as=0 ps=0 w=10u l=2u
X168 ldo_brahim_0.ldo_brahim_opamp_2_stage_0/ldo_brahim_mirror_0.i_ref.t1 VFB.t2 ldo_brahim_0.ldo_brahim_opamp_2_stage_0/ldo_brahim_tail_0.tail.t5 IOVDD.t3 sg13_hv_pmos ad=1.7p pd=10.68u as=1.7p ps=10.68u w=5u l=2u
X169 VSS.t189 ldo_brahim_0.ldo_brahim_pass_element2_0.VG2.t4 cap_cmim l=27u w=45u
X170 IOVDD.t217 bgr_djalal_0.bgr_djalal_ota_1_stage_0.Vout1.t8 cap_cmim l=7u w=7u
X171 bgr_djalal_0.bgr_djalal_ota_1_stage_0.VP.t1 bgr_djalal_0.bgr_djalal_ota_1_stage_0.Vout1.t11 IOVDD.t185 IOVDD.t43 sg13_hv_pmos ad=0.17p pd=1.68u as=0.17p ps=1.68u w=0.5u l=3u
X172 a_4782_11016.t0 a_4782_7848.t0 VSS.t4 rhigh l=15.41u w=0.5u
X173 VSS.t95 VSS.t43 VSS.t95 VSS.t92 sg13_hv_nmos ad=2.7p pd=8.22u as=0 ps=0 w=7.5u l=1u
X174 IOVDD.t15 ldo_brahim_0.I_Bias.t1 beta_multiplier_0.beta_multiplier_mirror_0.VN.t1 IOVDD.t1 sg13_hv_pmos ad=0.95p pd=5.38u as=1.7p ps=10.68u w=5u l=2u
X175 IOVDD.t91 IOVDD.t89 IOVDD.t90 IOVDD.t50 sg13_hv_pmos ad=3.4p pd=20.68u as=0 ps=0 w=10u l=5u
X176 ldo_brahim_0.ldo_brahim_pass_element2_0.VG2.t3 ldo_brahim_0.I_Bias.t16 IOVDD.t18 IOVDD.t3 sg13_hv_pmos ad=1.9p pd=10.38u as=1.9p ps=10.38u w=10u l=2u
X177 IOVDD.t29 beta_multiplier_0.beta_multiplier_startup_0.beta_multiplier_startup_mirror_0.VS2.t0 beta_multiplier_0.beta_multiplier_startup_0.beta_multiplier_startup_mirror_0.VS2.t2 IOVDD.t1 sg13_hv_pmos ad=1.7p pd=10.68u as=1.7p ps=10.68u w=5u l=1u
X178 IOVDD.t189 ldo_brahim_0.ldo_brahim_pass_element2_0.VG2.t10 VDD.t17 VSS.t185 sg13_hv_nmos ad=1.9p pd=10.38u as=3.4p ps=20.68u w=10u l=0.45u
X179 VDD.t16 ldo_brahim_0.ldo_brahim_pass_element2_0.VG2.t10 IOVDD.t202 VSS.t188 sg13_hv_nmos ad=1.9p pd=10.38u as=1.9p ps=10.38u w=10u l=0.45u
X180 IOVDD.t5 ldo_brahim_0.I_Bias.t18 bgr_djalal_0.bgr_djalal_ota_1_stage_0.bgr_djalal_ota_tail_0.tail.t2 IOVDD.t17 sg13_hv_pmos ad=1.9p pd=10.38u as=1.9p ps=10.38u w=10u l=2u
X181 VSS.t26 VSS.t27 VSS.t8 rhigh l=10u w=0.5u
X182 VR.t12 beta_multiplier_0.beta_multiplier_mirror_0.VN.t4 ldo_brahim_0.I_Bias.t0 VSS.t64 sg13_hv_nmos ad=3.4p pd=20.68u as=1.9p ps=10.38u w=10u l=1u
X183 VDD.t15 ldo_brahim_0.ldo_brahim_pass_element2_0.VG2.t10 IOVDD.t200 VSS.t186 sg13_hv_nmos ad=1.9p pd=10.38u as=1.9p ps=10.38u w=10u l=0.45u
X184 IOVDD.t6 IOVDD.t87 IOVDD.t88 IOVDD.t3 sg13_hv_pmos ad=3.4p pd=20.68u as=0 ps=0 w=10u l=2u
X185 IOVDD.t224 bgr_djalal_0.bgr_djalal_ota_1_stage_0.Vout1.t7 cap_cmim l=7u w=7u
X186 a_11302_7614.t1 a_13388_7878.t1 VSS.t1 rhigh l=10u w=0.5u
X187 VDD.t0 VFB.t1 VSS.t161 rhigh l=9u w=0.5u
X188 IOVDD.t86 IOVDD.t65 IOVDD.t85 IOVDD.t33 sg13_hv_pmos ad=3.4p pd=20.68u as=0 ps=0 w=10u l=5u
X189 a_11302_8142.t1 a_13388_7878.t0 VSS.t1 rhigh l=10u w=0.5u
X190 IOVDD.t83 IOVDD.t36 IOVDD.t18 IOVDD.t3 sg13_hv_pmos ad=1.9p pd=10.38u as=0 ps=0 w=10u l=2u
X191 VSS.t99 VSS.t63 VSS.t98 VSS.t64 sg13_hv_nmos ad=3.4p pd=20.68u as=0 ps=0 w=10u l=0.45u
X192 VSS.t96 VSS.t43 VSS.t95 VSS.t32 sg13_hv_nmos ad=2.55p pd=15.68u as=0 ps=0 w=7.5u l=4u
X193 IOVDD.t80 IOVDD.t61 IOVDD.t79 IOVDD.t62 sg13_hv_pmos ad=0.17p pd=1.68u as=0 ps=0 w=0.5u l=3u
X194 ldo_brahim_0.I_Bias.t0 beta_multiplier_0.beta_multiplier_mirror_0.VN.t5 VR.t13 VSS.t64 sg13_hv_nmos ad=1.9p pd=10.38u as=3.4p ps=20.68u w=10u l=1u
X195 VSS.t90 VSS.t43 VSS.t90 VSS.t92 sg13_hv_nmos ad=2.7p pd=8.22u as=0 ps=0 w=7.5u l=1u
X196 VSS.t11 bgr_djalal_0.bgr_djalal_ota_1_stage_0.VN.t5 bgr_djalal_0.bgr_djalal_start_up_0.bgr_djalal_start_up_enable_0.Icpy.t2 VSS.t10 sg13_hv_nmos ad=1.36p pd=8.68u as=1.36p ps=8.68u w=4u l=2u
X197 VSS.t91 VSS.t43 VSS.t90 VSS.t32 sg13_hv_nmos ad=2.55p pd=15.68u as=0 ps=0 w=7.5u l=4u
X198 VSS.t88 VSS.t79 VSS.t87 VSS.t80 sg13_hv_nmos ad=3.4p pd=20.68u as=0 ps=0 w=10u l=2u
X199 IOVDD.t220 bgr_djalal_0.bgr_djalal_ota_1_stage_0.Vout1.t5 cap_cmim l=7u w=7u
X200 IOVDD.t198 ldo_brahim_0.ldo_brahim_pass_element2_0.VG2.t10 VDD.t10 VSS.t185 sg13_hv_nmos ad=1.9p pd=10.38u as=1.9p ps=10.38u w=10u l=0.45u
X201 VDD.t14 ldo_brahim_0.ldo_brahim_pass_element2_0.VG2.t10 IOVDD.t198 VSS.t185 sg13_hv_nmos ad=1.9p pd=10.38u as=1.9p ps=10.38u w=10u l=0.45u
X202 ldo_brahim_0.ldo_brahim_opamp_2_stage_0/ldo_brahim_tail_0.tail.t0 VFB.t3 ldo_brahim_0.ldo_brahim_opamp_2_stage_0/ldo_brahim_mirror_0.i_ref.t0 IOVDD.t3 sg13_hv_pmos ad=1.7p pd=10.68u as=1.7p ps=10.68u w=5u l=2u
X203 a_5310_14426.t1 a_5574_11258.t0 VSS.t4 rhigh l=15.41u w=0.5u
X204 IOVDD.t16 ldo_brahim_0.I_Bias.t16 ldo_brahim_0.ldo_brahim_pass_element2_0.VG2.t0 IOVDD.t3 sg13_hv_pmos ad=1.9p pd=10.38u as=1.9p ps=10.38u w=10u l=2u
X205 IOVDD.t77 IOVDD.t75 IOVDD.t76 IOVDD.t57 sg13_hv_pmos ad=0.17p pd=1.68u as=0 ps=0 w=0.5u l=3u
X206 VSS.t85 VSS.t43 VSS.t84 VSS.t28 sg13_hv_nmos ad=2.55p pd=15.68u as=0 ps=0 w=7.5u l=4u
X207 bgr_djalal_0.bgr_djalal_start_up_0.bgr_djalal_start_up_mirror_0.Iref.t5 VSS.t22 cap_cmim l=5u w=5u
X208 ldo_brahim_0.I_Bias.t4 ldo_brahim_0.I_Bias.t3 IOVDD.t15 IOVDD.t1 sg13_hv_pmos ad=1.7p pd=10.68u as=0.95p ps=5.38u w=5u l=2u
X209 bgr_djalal_0.bgr_djalal_ota_1_stage_0.bgr_djalal_ota_tail_0.tail.t2 ldo_brahim_0.I_Bias.t18 IOVDD.t14 IOVDD.t13 sg13_hv_pmos ad=1.9p pd=10.38u as=1.9p ps=10.38u w=10u l=2u
X210 bgr_djalal_0.bgr_djalal_ota_1_stage_0.VN.t1 bgr_djalal_0.bgr_djalal_ota_1_stage_0.Vout1.t11 IOVDD.t184 IOVDD.t43 sg13_hv_pmos ad=0.17p pd=1.68u as=0.17p ps=1.68u w=0.5u l=3u
X211 VSS.t82 VSS.t79 VSS.t81 VSS.t80 sg13_hv_nmos ad=3.4p pd=20.68u as=0 ps=0 w=10u l=2u
X212 VSS.t176 VR.t16 beta_multiplier_0.beta_multiplier_startup_0.beta_multiplier_startup_enable_0.VS1.t2 VSS.t64 sg13_hv_nmos ad=3.4p pd=20.68u as=3.4p ps=20.68u w=10u l=0.45u
X213 ldo_brahim_0.I_Bias.t15 VSS.t78 ldo_brahim_0.I_Bias.t15 VSS.t46 sg13_hv_nmos ad=1.9p pd=10.38u as=0 ps=0 w=10u l=1u
X214 a_11302_7614.t0 a_13388_7350.t0 VSS.t1 rhigh l=10u w=0.5u
X215 VSS.t77 VSS.t43 VSS.t76 VSS.t28 sg13_hv_nmos ad=2.55p pd=15.68u as=0 ps=0 w=7.5u l=4u
X216 IOVDD.t74 IOVDD.t49 IOVDD.t73 IOVDD.t50 sg13_hv_pmos ad=3.4p pd=20.68u as=0 ps=0 w=10u l=5u
X217 IOVDD.t9 ldo_brahim_0.I_Bias.t1 ldo_brahim_0.I_Bias.t2 IOVDD.t1 sg13_hv_pmos ad=0.95p pd=5.38u as=1.7p ps=10.68u w=5u l=2u
X218 a_13388_8406.t1 a_15716_8142.t0 VSS.t0 rhigh l=10u w=0.5u
X219 IOVDD.t203 ldo_brahim_0.ldo_brahim_pass_element2_0.VG2.t10 VDD.t13 VSS.t187 sg13_hv_nmos ad=1.9p pd=10.38u as=1.9p ps=10.38u w=10u l=0.45u
X220 IOVDD.t183 bgr_djalal_0.bgr_djalal_ota_1_stage_0.Vout1.t11 bgr_djalal_0.bgr_djalal_ota_1_stage_0.VN.t0 IOVDD.t126 sg13_hv_pmos ad=0.17p pd=1.68u as=0.17p ps=1.68u w=0.5u l=3u
X221 a_5574_11016.t0 a_5310_7848.t1 VSS.t4 rhigh l=15.41u w=0.5u
X222 VSS.t74 VSS.t71 VSS.t73 VSS.t72 sg13_hv_nmos ad=0.68p pd=4.68u as=0 ps=0 w=2u l=2.75u
X223 VDD.t12 ldo_brahim_0.ldo_brahim_pass_element2_0.VG2.t10 IOVDD.t201 VSS.t188 sg13_hv_nmos ad=1.9p pd=10.38u as=1.9p ps=10.38u w=10u l=0.45u
X224 VSS.t70 VSS.t67 VSS.t69 VSS.t68 sg13_hv_nmos ad=1.36p pd=8.68u as=0 ps=0 w=4u l=2u
X225 a_6646_7350.t1 a_8732_7350.t0 VSS.t1 rhigh l=10u w=0.5u
X226 IOVDD.t201 ldo_brahim_0.ldo_brahim_pass_element2_0.VG2.t10 VDD.t7 VSS.t188 sg13_hv_nmos ad=1.9p pd=10.38u as=1.9p ps=10.38u w=10u l=0.45u
X227 ldo_brahim_0.ldo_brahim_pass_element2_0.VG2.t2 ldo_brahim_0.I_Bias.t17 IOVDD.t11 IOVDD.t3 sg13_hv_pmos ad=1.9p pd=10.38u as=1.9p ps=10.38u w=10u l=2u
X228 IOVDD.t71 IOVDD.t68 IOVDD.t70 IOVDD.t69 sg13_hv_pmos ad=0.68p pd=4.68u as=0 ps=0 w=2u l=1u
X229 IOVDD.t67 IOVDD.t65 IOVDD.t66 IOVDD.t33 sg13_hv_pmos ad=3.4p pd=20.68u as=0 ps=0 w=10u l=5u
X230 VSS.t173 ldo_brahim_0.ldo_brahim_opamp_2_stage_0/ldo_brahim_cs_0.VG.t5 ldo_brahim_0.ldo_brahim_pass_element2_0.VG2.t9 VSS.t178 sg13_hv_nmos ad=1.9p pd=10.38u as=1.9p ps=10.38u w=10u l=2u
X231 VDD.t11 ldo_brahim_0.ldo_brahim_pass_element2_0.VG2.t10 IOVDD.t199 VSS.t186 sg13_hv_nmos ad=1.9p pd=10.38u as=1.9p ps=10.38u w=10u l=0.45u
X232 IOVDD.t10 ldo_brahim_0.I_Bias.t16 ldo_brahim_0.ldo_brahim_opamp_2_stage_0/ldo_brahim_tail_0.tail.t2 IOVDD.t3 sg13_hv_pmos ad=1.9p pd=10.38u as=1.9p ps=10.38u w=10u l=2u
X233 bgr_djalal_0.bgr_djalal_ota_1_stage_0.bgr_djalal_ota_mirror_0.Iref.t0 bgr_djalal_0.bgr_djalal_ota_1_stage_0.VP.t5 bgr_djalal_0.bgr_djalal_ota_1_stage_0.bgr_djalal_ota_tail_0.tail.t0 IOVDD.t0 sg13_hv_pmos ad=3.4p pd=20.68u as=3.4p ps=20.68u w=10u l=5u
X234 VDD.t10 ldo_brahim_0.ldo_brahim_pass_element2_0.VG2.t10 IOVDD.t197 VSS.t185 sg13_hv_nmos ad=1.9p pd=10.38u as=1.9p ps=10.38u w=10u l=0.45u
X235 IOVDD.t199 ldo_brahim_0.ldo_brahim_pass_element2_0.VG2.t10 VDD.t6 VSS.t186 sg13_hv_nmos ad=1.9p pd=10.38u as=1.9p ps=10.38u w=10u l=0.45u
X236 IOVDD.t64 IOVDD.t61 IOVDD.t63 IOVDD.t62 sg13_hv_pmos ad=0.17p pd=1.68u as=0 ps=0 w=0.5u l=3u
X237 bgr_djalal_0.bgr_djalal_start_up_0.bgr_djalal_start_up_mirror_0.Iref.t3 IOVDD.t60 VSS.t163 IOVDD.t43 sg13_hv_pmos ad=0.68p pd=4.68u as=0.68p ps=4.68u w=2u l=1u
X238 a_15716_8670.t0 bgr_djalal_0.bgr_djalal_ota_1_stage_0.VP.t0 VSS.t8 rhigh l=10u w=0.5u
X239 VSS.t38 ldo_brahim_0.ldo_brahim_opamp_2_stage_0/ldo_brahim_mirror_0.i_ref.t2 ldo_brahim_0.ldo_brahim_opamp_2_stage_0/ldo_brahim_mirror_0.i_ref.t4 VSS.t37 sg13_hv_nmos ad=3.4p pd=20.68u as=3.4p ps=20.68u w=10u l=2u
X240 beta_multiplier_0.beta_multiplier_startup_0.beta_multiplier_startup_mirror_0.VS2.t1 beta_multiplier_0.beta_multiplier_startup_0.beta_multiplier_startup_mirror_0.VS2.t0 IOVDD.t28 IOVDD.t1 sg13_hv_pmos ad=1.7p pd=10.68u as=1.7p ps=10.68u w=5u l=1u
X241 VSS.t66 VSS.t63 VSS.t65 VSS.t64 sg13_hv_nmos ad=3.4p pd=20.68u as=0 ps=0 w=10u l=0.45u
X242 a_8974_7350.t1 a_11060_7350.t1 VSS.t1 rhigh l=10u w=0.5u
X243 VSS.t169 VSS.t170 VSS.t1 rhigh l=10u w=0.5u
X244 VSS.t20 Vbg.t0 Vbg.t1 VSS.t19 sg13_hv_nmos ad=0.68p pd=4.68u as=0.68p ps=4.68u w=2u l=2.75u
X245 beta_multiplier_0.beta_multiplier_startup_0.beta_multiplier_startup_enable_0.VS1.t3 VR.t16 VSS.t175 VSS.t64 sg13_hv_nmos ad=3.4p pd=20.68u as=3.4p ps=20.68u w=10u l=0.45u