* NGSPICE file created from DFT.ext - technology: ihp-sg13g2

.subckt DFT IOVDD VSS V8 V7 V6 V5 V4 V3 V2 V1 S2 S1 S0 EN VDD Vout
X0 VDD.t43 S2.t0 encoder_0.s2_n VDD.t42 sg13_lv_pmos ad=0.3808p pd=2.92u as=0.3808p ps=2.92u w=1.12u l=0.13u
X1 a_2849_3725.t0 S0.t0 VDD.t1 VDD.t0 sg13_lv_pmos ad=0.1596p pd=1.22u as=0.1596p ps=1.22u w=0.84u l=0.13u
X2 VDD.t18 a_2023_1215.t3 encoder_0.o5.t0 VDD.t5 sg13_lv_pmos ad=0.2044p pd=1.53u as=0.5376p ps=3.2u w=1.12u l=0.13u
X3 VDD.t8 encoder_0.s1_n a_2023_2470.t0 VDD.t7 sg13_lv_pmos ad=0.2856p pd=2.36u as=0.1596p ps=1.22u w=0.84u l=0.13u
X4 V1.t1 switches_0.switch_level_shifter_7.switch_0.en_3.t2 Vout.t31 VSS.t30 sg13_hv_nmos ad=0.95p pd=5.38u as=1.7p ps=10.68u w=5u l=0.45u
X5 a_2449_1349.t0 EN.t0 VSS.t21 VSS.t0 sg13_lv_nmos ad=0.1408p pd=1.08u as=0.1447p ps=1.15u w=0.64u l=0.13u
X6 V7.t1 switches_0.switch_level_shifter_1.switch_0.en_3.t2 Vout.t15 VSS.t16 sg13_hv_nmos ad=0.95p pd=5.38u as=1.7p ps=10.68u w=5u l=0.45u
X7 switches_0.switch_level_shifter_4.switch_0.en_3.t1 switches_0.switch_level_shifter_4.switch_0.en_n.t2 IOVDD.t5 IOVDD.t4 sg13_hv_pmos ad=0.1632p pd=1.64u as=0.1632p ps=1.64u w=0.48u l=0.45u
X8 a_2849_4980.t0 encoder_0.s1_n a_2885_5330.t0 VSS.t1 sg13_lv_nmos ad=0.2176p pd=1.96u as=0.1216p ps=1.02u w=0.64u l=0.13u
X9 VSS.t31 a_2849_4980.t3 encoder_0.o1.t0 VSS.t23 sg13_lv_nmos ad=0.1447p pd=1.15u as=0.3552p ps=2.44u w=0.74u l=0.13u
X10 VDD.t32 S1.t0 a_2849_2470.t0 VDD.t10 sg13_lv_pmos ad=0.2856p pd=2.36u as=0.1596p ps=1.22u w=0.84u l=0.13u
X11 VSS.t49 S0.t1 encoder_0.s0_n.t0 VSS.t48 sg13_lv_nmos ad=0.2516p pd=2.16u as=0.2516p ps=2.16u w=0.74u l=0.13u
X12 switches_0.switch_level_shifter_2.switch_0.en_3.t0 switches_0.switch_level_shifter_2.switch_0.en_n.t2 VSS.t28 VSS.t27 sg13_hv_nmos ad=0.102p pd=1.28u as=0.102p ps=1.28u w=0.3u l=0.45u
X13 switches_0.switch_level_shifter_3.switch_0.en_3.t1 switches_0.switch_level_shifter_3.switch_0.en_n.t2 IOVDD.t27 IOVDD.t26 sg13_hv_pmos ad=0.1632p pd=1.64u as=0.1632p ps=1.64u w=0.48u l=0.45u
X14 VDD.t17 a_2849_1215.t3 encoder_0.o4.t1 VDD.t13 sg13_lv_pmos ad=0.2044p pd=1.53u as=0.5376p ps=3.2u w=1.12u l=0.13u
X15 VDD.t20 a_2023_3725.t3 encoder_0.o7.t1 VDD.t19 sg13_lv_pmos ad=0.2044p pd=1.53u as=0.5376p ps=3.2u w=1.12u l=0.13u
X16 Vout.t21 switches_0.switch_level_shifter_4.switch_0.en_3.t2 V4.t1 VSS.t6 sg13_hv_nmos ad=1.7p pd=10.68u as=0.95p ps=5.38u w=5u l=0.45u
X17 a_2449_3859.t0 EN.t1 VSS.t22 VSS.t0 sg13_lv_nmos ad=0.1408p pd=1.08u as=0.1447p ps=1.15u w=0.64u l=0.13u
X18 a_2885_4075.t0 S0.t0 a_2885_3973.t0 VSS.t1 sg13_lv_nmos ad=0.1216p pd=1.02u as=0.1216p ps=1.02u w=0.64u l=0.13u
X19 VSS.t40 S1.t1 encoder_0.s1_n VSS.t39 sg13_lv_nmos ad=0.2516p pd=2.16u as=0.2516p ps=2.16u w=0.74u l=0.13u
X20 a_2449_1565.t0 encoder_0.s0_n.t2 a_2449_1463.t0 VSS.t0 sg13_lv_nmos ad=0.1216p pd=1.02u as=0.1216p ps=1.02u w=0.64u l=0.13u
X21 switches_0.switch_level_shifter_7.switch_0.en_3.t0 switches_0.switch_level_shifter_7.switch_0.en_n.t2 IOVDD.t15 IOVDD.t14 sg13_hv_pmos ad=0.1632p pd=1.64u as=0.1632p ps=1.64u w=0.48u l=0.45u
X22 V6.t0 switches_0.switch_level_shifter_2.switch_0.en_3.t2 Vout.t17 VSS.t36 sg13_hv_nmos ad=0.95p pd=5.38u as=1.7p ps=10.68u w=5u l=0.45u
X23 Vout.t19 switches_0.switch_level_shifter_6.switch_0.en_3.t2 V2.t0 VSS.t35 sg13_hv_nmos ad=1.7p pd=10.68u as=0.95p ps=5.38u w=5u l=0.45u
X24 VDD.t53 S0.t1 encoder_0.s0_n.t1 VDD.t52 sg13_lv_pmos ad=0.3808p pd=2.92u as=0.3808p ps=2.92u w=1.12u l=0.13u
X25 VDD.t41 S2.t1 a_2023_4980.t0 VDD.t29 sg13_lv_pmos ad=0.1596p pd=1.22u as=0.1848p ps=1.28u w=0.84u l=0.13u
X26 V8.t1 switches_0.switch_level_shifter_0.switch_0.en_3.t2 Vout.t3 VSS.t7 sg13_hv_nmos ad=0.95p pd=5.38u as=1.7p ps=10.68u w=5u l=0.45u
X27 VDD.t22 a_2849_3725.t3 encoder_0.o2.t1 VDD.t0 sg13_lv_pmos ad=0.2044p pd=1.53u as=0.5376p ps=3.2u w=1.12u l=0.13u
X28 switches_0.switch_level_shifter_1.switch_0.en_3.t1 switches_0.switch_level_shifter_1.switch_0.en_n.t2 IOVDD.t9 IOVDD.t8 sg13_hv_pmos ad=0.1632p pd=1.64u as=0.1632p ps=1.64u w=0.48u l=0.45u
X29 VSS.t18 a_2849_1215.t3 encoder_0.o4.t0 VSS.t23 sg13_lv_nmos ad=0.1447p pd=1.15u as=0.3552p ps=2.44u w=0.74u l=0.13u
X30 switches_0.switch_level_shifter_4.switch_0.en_n.t1 encoder_0.o4.t2 VSS.t15 VSS.t14 sg13_hv_nmos ad=0.68p pd=4.68u as=0.68p ps=4.68u w=2u l=0.45u
X31 a_2849_2470.t2 S1.t0 a_2885_2820.t0 VSS.t1 sg13_lv_nmos ad=0.2176p pd=1.96u as=0.1216p ps=1.02u w=0.64u l=0.13u
X32 VDD.t28 S1.t1 encoder_0.s1_n VDD.t27 sg13_lv_pmos ad=0.3808p pd=2.92u as=0.3808p ps=2.92u w=1.12u l=0.13u
X33 VSS.t56 S2.t0 encoder_0.s2_n VSS.t55 sg13_lv_nmos ad=0.2516p pd=2.16u as=0.2516p ps=2.16u w=0.74u l=0.13u
X34 a_2023_4980.t2 S1.t2 a_2449_5330.t0 VSS.t0 sg13_lv_nmos ad=0.2176p pd=1.96u as=0.1216p ps=1.02u w=0.64u l=0.13u
X35 Vout.t30 switches_0.switch_level_shifter_7.switch_0.en_3.t2 V1.t1 VSS.t29 sg13_hv_nmos ad=1.7p pd=10.68u as=0.95p ps=5.38u w=5u l=0.45u
X36 V1.t0 switches_0.switch_level_shifter_7.switch_0.en_n.t3 Vout.t7 IOVDD.t16 sg13_hv_pmos ad=0.95p pd=5.38u as=1.7p ps=10.68u w=5u l=0.45u
X37 VDD.t9 encoder_0.s2_n a_2849_4980.t2 VDD.t2 sg13_lv_pmos ad=0.1596p pd=1.22u as=0.1848p ps=1.28u w=0.84u l=0.13u
X38 V5.t1 switches_0.switch_level_shifter_3.switch_0.en_n.t3 Vout.t25 IOVDD.t28 sg13_hv_pmos ad=0.95p pd=5.38u as=1.7p ps=10.68u w=5u l=0.45u
X39 Vout.t5 switches_0.switch_level_shifter_5.switch_0.en_3.t2 V3.t0 VSS.t17 sg13_hv_nmos ad=1.7p pd=10.68u as=0.95p ps=5.38u w=5u l=0.45u
X40 switches_0.switch_level_shifter_5.switch_0.en_3.t1 switches_0.switch_level_shifter_5.switch_0.en_n.t2 IOVDD.t36 IOVDD.t35 sg13_hv_pmos ad=0.1632p pd=1.64u as=0.1632p ps=1.64u w=0.48u l=0.45u
X41 a_2023_2470.t2 EN.t2 VDD.t37 VDD.t7 sg13_lv_pmos ad=0.1848p pd=1.28u as=0.2044p ps=1.53u w=0.84u l=0.13u
X42 VSS.t26 a_2849_3725.t3 encoder_0.o2.t0 VSS.t23 sg13_lv_nmos ad=0.1447p pd=1.15u as=0.3552p ps=2.44u w=0.74u l=0.13u
X43 a_2449_4075.t0 encoder_0.s0_n.t3 a_2449_3973.t0 VSS.t0 sg13_lv_nmos ad=0.1216p pd=1.02u as=0.1216p ps=1.02u w=0.64u l=0.13u
X44 VDD.t35 S2.t2 a_2023_2470.t2 VDD.t7 sg13_lv_pmos ad=0.1596p pd=1.22u as=0.1848p ps=1.28u w=0.84u l=0.13u
X45 switches_0.switch_level_shifter_7.switch_0.en_n.t0 encoder_0.o1.t2 VSS.t32 VSS.t2 sg13_hv_nmos ad=0.68p pd=4.68u as=0.68p ps=4.68u w=2u l=0.45u
X46 Vout.t1 switches_0.switch_level_shifter_0.switch_0.en_n.t2 V8.t0 IOVDD.t2 sg13_hv_pmos ad=1.7p pd=10.68u as=0.95p ps=5.38u w=5u l=0.45u
X47 a_2849_2470.t1 EN.t3 VDD.t26 VDD.t10 sg13_lv_pmos ad=0.1848p pd=1.28u as=0.2044p ps=1.53u w=0.84u l=0.13u
X48 Vout.t27 switches_0.switch_level_shifter_4.switch_0.en_n.t3 V4.t0 IOVDD.t3 sg13_hv_pmos ad=1.7p pd=10.68u as=0.95p ps=5.38u w=5u l=0.45u
X49 switches_0.switch_level_shifter_2.switch_0.en_3.t1 switches_0.switch_level_shifter_2.switch_0.en_n.t2 IOVDD.t18 IOVDD.t17 sg13_hv_pmos ad=0.1632p pd=1.64u as=0.1632p ps=1.64u w=0.48u l=0.45u
X50 switches_0.switch_level_shifter_4.switch_0.en_3.t0 switches_0.switch_level_shifter_4.switch_0.en_n.t4 VSS.t42 VSS.t41 sg13_hv_nmos ad=0.102p pd=1.28u as=0.102p ps=1.28u w=0.3u l=0.45u
X51 a_2023_2470.t1 encoder_0.s1_n a_2449_2820.t0 VSS.t0 sg13_lv_nmos ad=0.2176p pd=1.96u as=0.1216p ps=1.02u w=0.64u l=0.13u
X52 a_2885_5228.t0 encoder_0.s2_n a_2885_5114.t0 VSS.t1 sg13_lv_nmos ad=0.1216p pd=1.02u as=0.1408p ps=1.08u w=0.64u l=0.13u
X53 VDD.t11 encoder_0.s2_n a_2849_2470.t1 VDD.t10 sg13_lv_pmos ad=0.1596p pd=1.22u as=0.1848p ps=1.28u w=0.84u l=0.13u
X54 Vout.t23 switches_0.switch_level_shifter_6.switch_0.en_n.t2 V2.t1 IOVDD.t25 sg13_hv_pmos ad=1.7p pd=10.68u as=0.95p ps=5.38u w=5u l=0.45u
X55 Vout.t9 switches_0.switch_level_shifter_2.switch_0.en_n.t3 V6.t1 IOVDD.t19 sg13_hv_pmos ad=1.7p pd=10.68u as=0.95p ps=5.38u w=5u l=0.45u
X56 switches_0.switch_level_shifter_6.switch_0.en_3.t0 switches_0.switch_level_shifter_6.switch_0.en_n.t3 IOVDD.t13 IOVDD.t12 sg13_hv_pmos ad=0.1632p pd=1.64u as=0.1632p ps=1.64u w=0.48u l=0.45u
X57 a_2023_4980.t0 EN.t4 VDD.t47 VDD.t29 sg13_lv_pmos ad=0.1848p pd=1.28u as=0.2044p ps=1.53u w=0.84u l=0.13u
X58 switches_0.switch_level_shifter_5.switch_0.en_n.t0 encoder_0.o3.t2 VSS.t53 VSS.t43 sg13_hv_nmos ad=0.68p pd=4.68u as=0.68p ps=4.68u w=2u l=0.45u
X59 switches_0.switch_level_shifter_0.switch_0.en_n.t0 encoder_0.o8.t2 IOVDD.t34 IOVDD.t33 sg13_hv_pmos ad=0.102p pd=1.28u as=0.102p ps=1.28u w=0.3u l=0.4u
X60 Vout.t24 switches_0.switch_level_shifter_3.switch_0.en_n.t3 V5.t1 IOVDD.t28 sg13_hv_pmos ad=1.7p pd=10.68u as=0.95p ps=5.38u w=5u l=0.45u
X61 Vout.t6 switches_0.switch_level_shifter_7.switch_0.en_n.t3 V1.t0 IOVDD.t16 sg13_hv_pmos ad=1.7p pd=10.68u as=0.95p ps=5.38u w=5u l=0.45u
X62 Vout.t11 switches_0.switch_level_shifter_1.switch_0.en_n.t3 V7.t0 IOVDD.t20 sg13_hv_pmos ad=1.7p pd=10.68u as=0.95p ps=5.38u w=5u l=0.45u
X63 a_2885_2604.t0 EN.t3 VSS.t34 VSS.t1 sg13_lv_nmos ad=0.1408p pd=1.08u as=0.1447p ps=1.15u w=0.64u l=0.13u
X64 Vout.t29 switches_0.switch_level_shifter_5.switch_0.en_n.t3 V3.t1 IOVDD.t37 sg13_hv_pmos ad=1.7p pd=10.68u as=0.95p ps=5.38u w=5u l=0.45u
X65 a_2849_4980.t2 EN.t5 VDD.t24 VDD.t2 sg13_lv_pmos ad=0.1848p pd=1.28u as=0.2044p ps=1.53u w=0.84u l=0.13u
X66 switches_0.switch_level_shifter_7.switch_0.en_3.t1 switches_0.switch_level_shifter_7.switch_0.en_n.t4 VSS.t25 VSS.t24 sg13_hv_nmos ad=0.102p pd=1.28u as=0.102p ps=1.28u w=0.3u l=0.45u
X67 switches_0.switch_level_shifter_4.switch_0.en_n.t0 encoder_0.o4.t3 IOVDD.t7 IOVDD.t6 sg13_hv_pmos ad=0.102p pd=1.28u as=0.102p ps=1.28u w=0.3u l=0.4u
X68 a_2885_2718.t0 encoder_0.s2_n a_2885_2604.t0 VSS.t1 sg13_lv_nmos ad=0.1216p pd=1.02u as=0.1408p ps=1.08u w=0.64u l=0.13u
X69 a_2449_5228.t0 S2.t1 a_2449_5114.t0 VSS.t0 sg13_lv_nmos ad=0.1216p pd=1.02u as=0.1408p ps=1.08u w=0.64u l=0.13u
X70 VDD.t39 S2.t3 a_2023_1215.t2 VDD.t5 sg13_lv_pmos ad=0.1596p pd=1.22u as=0.1848p ps=1.28u w=0.84u l=0.13u
X71 switches_0.switch_level_shifter_3.switch_0.en_n.t1 encoder_0.o5.t2 IOVDD.t1 IOVDD.t0 sg13_hv_pmos ad=0.102p pd=1.28u as=0.102p ps=1.28u w=0.3u l=0.4u
X72 switches_0.switch_level_shifter_6.switch_0.en_n.t0 encoder_0.o2.t2 VSS.t9 VSS.t8 sg13_hv_nmos ad=0.68p pd=4.68u as=0.68p ps=4.68u w=2u l=0.45u
X73 switches_0.switch_level_shifter_5.switch_0.en_3.t0 switches_0.switch_level_shifter_5.switch_0.en_n.t4 VSS.t38 VSS.t37 sg13_hv_nmos ad=0.102p pd=1.28u as=0.102p ps=1.28u w=0.3u l=0.45u
X74 VDD.t14 encoder_0.s2_n a_2849_1215.t0 VDD.t13 sg13_lv_pmos ad=0.1596p pd=1.22u as=0.1848p ps=1.28u w=0.84u l=0.13u
X75 VDD.t6 encoder_0.s1_n a_2023_1215.t0 VDD.t5 sg13_lv_pmos ad=0.2856p pd=2.36u as=0.1596p ps=1.22u w=0.84u l=0.13u
X76 a_2885_5114.t0 EN.t5 VSS.t31 VSS.t1 sg13_lv_nmos ad=0.1408p pd=1.08u as=0.1447p ps=1.15u w=0.64u l=0.13u
X77 switches_0.switch_level_shifter_0.switch_0.en_n.t1 encoder_0.o8.t3 VSS.t54 VSS.t14 sg13_hv_nmos ad=0.68p pd=4.68u as=0.68p ps=4.68u w=2u l=0.45u
X78 switches_0.switch_level_shifter_7.switch_0.en_n.t1 encoder_0.o1.t3 IOVDD.t39 IOVDD.t38 sg13_hv_pmos ad=0.102p pd=1.28u as=0.102p ps=1.28u w=0.3u l=0.4u
X79 V3.t0 switches_0.switch_level_shifter_5.switch_0.en_3.t2 Vout.t4 VSS.t16 sg13_hv_nmos ad=0.95p pd=5.38u as=1.7p ps=10.68u w=5u l=0.45u
X80 a_2023_4980.t1 S0.t2 VDD.t41 VDD.t29 sg13_lv_pmos ad=0.1596p pd=1.22u as=0.1596p ps=1.22u w=0.84u l=0.13u
X81 V5.t0 switches_0.switch_level_shifter_3.switch_0.en_3.t2 Vout.t13 VSS.t30 sg13_hv_nmos ad=0.95p pd=5.38u as=1.7p ps=10.68u w=5u l=0.45u
X82 a_2449_2604.t0 EN.t2 VSS.t5 VSS.t0 sg13_lv_nmos ad=0.1408p pd=1.08u as=0.1447p ps=1.15u w=0.64u l=0.13u
X83 VDD.t38 S2.t4 a_2023_3725.t1 VDD.t19 sg13_lv_pmos ad=0.1596p pd=1.22u as=0.1848p ps=1.28u w=0.84u l=0.13u
X84 VDD.t31 S1.t3 a_2849_1215.t1 VDD.t13 sg13_lv_pmos ad=0.2856p pd=2.36u as=0.1596p ps=1.22u w=0.84u l=0.13u
X85 a_2449_2718.t0 S2.t2 a_2449_2604.t0 VSS.t0 sg13_lv_nmos ad=0.1216p pd=1.02u as=0.1408p ps=1.08u w=0.64u l=0.13u
X86 a_2849_4980.t1 encoder_0.s0_n.t4 VDD.t9 VDD.t2 sg13_lv_pmos ad=0.1596p pd=1.22u as=0.1596p ps=1.22u w=0.84u l=0.13u
X87 VDD.t1 encoder_0.s2_n a_2849_3725.t2 VDD.t0 sg13_lv_pmos ad=0.1596p pd=1.22u as=0.1848p ps=1.28u w=0.84u l=0.13u
X88 Vout.t2 switches_0.switch_level_shifter_0.switch_0.en_3.t2 V8.t1 VSS.t6 sg13_hv_nmos ad=1.7p pd=10.68u as=0.95p ps=5.38u w=5u l=0.45u
X89 switches_0.switch_level_shifter_6.switch_0.en_3.t1 switches_0.switch_level_shifter_6.switch_0.en_n.t4 VSS.t20 VSS.t19 sg13_hv_nmos ad=0.102p pd=1.28u as=0.102p ps=1.28u w=0.3u l=0.45u
X90 a_2885_1463.t0 encoder_0.s2_n a_2885_1349.t0 VSS.t1 sg13_lv_nmos ad=0.1216p pd=1.02u as=0.1408p ps=1.08u w=0.64u l=0.13u
X91 switches_0.switch_level_shifter_3.switch_0.en_n.t0 encoder_0.o5.t3 VSS.t3 VSS.t2 sg13_hv_nmos ad=0.68p pd=4.68u as=0.68p ps=4.68u w=2u l=0.45u
X92 VDD.t25 S1.t4 a_2023_3725.t0 VDD.t19 sg13_lv_pmos ad=0.2856p pd=2.36u as=0.1596p ps=1.22u w=0.84u l=0.13u
X93 V2.t0 switches_0.switch_level_shifter_6.switch_0.en_3.t2 Vout.t18 VSS.t36 sg13_hv_nmos ad=0.95p pd=5.38u as=1.7p ps=10.68u w=5u l=0.45u
X94 a_2023_2470.t0 S0.t3 VDD.t35 VDD.t7 sg13_lv_pmos ad=0.1596p pd=1.22u as=0.1596p ps=1.22u w=0.84u l=0.13u
X95 a_2849_1215.t2 S1.t3 a_2885_1565.t0 VSS.t1 sg13_lv_nmos ad=0.2176p pd=1.96u as=0.1216p ps=1.02u w=0.64u l=0.13u
X96 Vout.t16 switches_0.switch_level_shifter_2.switch_0.en_3.t2 V6.t0 VSS.t35 sg13_hv_nmos ad=1.7p pd=10.68u as=0.95p ps=5.38u w=5u l=0.45u
X97 V4.t1 switches_0.switch_level_shifter_4.switch_0.en_3.t2 Vout.t20 VSS.t7 sg13_hv_nmos ad=0.95p pd=5.38u as=1.7p ps=10.68u w=5u l=0.45u
X98 a_2449_5114.t0 EN.t4 VSS.t58 VSS.t0 sg13_lv_nmos ad=0.1408p pd=1.08u as=0.1447p ps=1.15u w=0.64u l=0.13u
X99 VDD.t4 encoder_0.s1_n a_2849_3725.t0 VDD.t0 sg13_lv_pmos ad=0.2856p pd=2.36u as=0.1596p ps=1.22u w=0.84u l=0.13u
X100 a_2885_5330.t0 encoder_0.s0_n.t4 a_2885_5228.t0 VSS.t1 sg13_lv_nmos ad=0.1216p pd=1.02u as=0.1216p ps=1.02u w=0.64u l=0.13u
X101 switches_0.switch_level_shifter_2.switch_0.en_n.t0 encoder_0.o6.t2 IOVDD.t30 IOVDD.t29 sg13_hv_pmos ad=0.102p pd=1.28u as=0.102p ps=1.28u w=0.3u l=0.4u
X102 a_2849_2470.t0 encoder_0.s0_n.t5 VDD.t11 VDD.t10 sg13_lv_pmos ad=0.1596p pd=1.22u as=0.1596p ps=1.22u w=0.84u l=0.13u
X103 a_2885_3973.t0 encoder_0.s2_n a_2885_3859.t0 VSS.t1 sg13_lv_nmos ad=0.1216p pd=1.02u as=0.1408p ps=1.08u w=0.64u l=0.13u
X104 Vout.t12 switches_0.switch_level_shifter_3.switch_0.en_3.t2 V5.t0 VSS.t29 sg13_hv_nmos ad=1.7p pd=10.68u as=0.95p ps=5.38u w=5u l=0.45u
X105 V3.t1 switches_0.switch_level_shifter_5.switch_0.en_n.t3 Vout.t28 IOVDD.t37 sg13_hv_pmos ad=0.95p pd=5.38u as=1.7p ps=10.68u w=5u l=0.45u
X106 V7.t0 switches_0.switch_level_shifter_1.switch_0.en_n.t3 Vout.t10 IOVDD.t20 sg13_hv_pmos ad=0.95p pd=5.38u as=1.7p ps=10.68u w=5u l=0.45u
X107 switches_0.switch_level_shifter_1.switch_0.en_n.t0 encoder_0.o7.t2 VSS.t44 VSS.t43 sg13_hv_nmos ad=0.68p pd=4.68u as=0.68p ps=4.68u w=2u l=0.45u
X108 Vout.t14 switches_0.switch_level_shifter_1.switch_0.en_3.t2 V7.t1 VSS.t17 sg13_hv_nmos ad=1.7p pd=10.68u as=0.95p ps=5.38u w=5u l=0.45u
X109 a_2023_1215.t2 EN.t0 VDD.t18 VDD.t5 sg13_lv_pmos ad=0.1848p pd=1.28u as=0.2044p ps=1.53u w=0.84u l=0.13u
X110 VSS.t5 a_2023_2470.t3 encoder_0.o6.t0 VSS.t4 sg13_lv_nmos ad=0.1447p pd=1.15u as=0.3552p ps=2.44u w=0.74u l=0.13u
X111 switches_0.switch_level_shifter_6.switch_0.en_n.t1 encoder_0.o2.t3 IOVDD.t22 IOVDD.t21 sg13_hv_pmos ad=0.102p pd=1.28u as=0.102p ps=1.28u w=0.3u l=0.4u
X112 a_2849_1215.t0 EN.t6 VDD.t17 VDD.t13 sg13_lv_pmos ad=0.1848p pd=1.28u as=0.2044p ps=1.53u w=0.84u l=0.13u
X113 a_2449_1463.t0 S2.t3 a_2449_1349.t0 VSS.t0 sg13_lv_nmos ad=0.1216p pd=1.02u as=0.1408p ps=1.08u w=0.64u l=0.13u
X114 switches_0.switch_level_shifter_0.switch_0.en_3.t0 switches_0.switch_level_shifter_0.switch_0.en_n.t3 VSS.t13 VSS.t12 sg13_hv_nmos ad=0.102p pd=1.28u as=0.102p ps=1.28u w=0.3u l=0.45u
X115 a_2849_3725.t1 encoder_0.s1_n a_2885_4075.t0 VSS.t1 sg13_lv_nmos ad=0.2176p pd=1.96u as=0.1216p ps=1.02u w=0.64u l=0.13u
X116 a_2885_2820.t0 encoder_0.s0_n.t5 a_2885_2718.t0 VSS.t1 sg13_lv_nmos ad=0.1216p pd=1.02u as=0.1216p ps=1.02u w=0.64u l=0.13u
X117 VSS.t58 a_2023_4980.t3 encoder_0.o8.t0 VSS.t4 sg13_lv_nmos ad=0.1447p pd=1.15u as=0.3552p ps=2.44u w=0.74u l=0.13u
X118 a_2023_3725.t1 EN.t1 VDD.t20 VDD.t19 sg13_lv_pmos ad=0.1848p pd=1.28u as=0.2044p ps=1.53u w=0.84u l=0.13u
X119 a_2023_1215.t1 encoder_0.s1_n a_2449_1565.t0 VSS.t0 sg13_lv_nmos ad=0.2176p pd=1.96u as=0.1216p ps=1.02u w=0.64u l=0.13u
X120 V6.t1 switches_0.switch_level_shifter_2.switch_0.en_n.t3 Vout.t8 IOVDD.t19 sg13_hv_pmos ad=0.95p pd=5.38u as=1.7p ps=10.68u w=5u l=0.45u
X121 V2.t1 switches_0.switch_level_shifter_6.switch_0.en_n.t2 Vout.t22 IOVDD.t25 sg13_hv_pmos ad=0.95p pd=5.38u as=1.7p ps=10.68u w=5u l=0.45u
X122 switches_0.switch_level_shifter_1.switch_0.en_n.t1 encoder_0.o7.t3 IOVDD.t24 IOVDD.t23 sg13_hv_pmos ad=0.102p pd=1.28u as=0.102p ps=1.28u w=0.3u l=0.4u
X123 switches_0.switch_level_shifter_2.switch_0.en_n.t1 encoder_0.o6.t3 VSS.t52 VSS.t8 sg13_hv_nmos ad=0.68p pd=4.68u as=0.68p ps=4.68u w=2u l=0.45u
X124 VDD.t37 a_2023_2470.t3 encoder_0.o6.t1 VDD.t7 sg13_lv_pmos ad=0.2044p pd=1.53u as=0.5376p ps=3.2u w=1.12u l=0.13u
X125 a_2449_5330.t0 S0.t2 a_2449_5228.t0 VSS.t0 sg13_lv_nmos ad=0.1216p pd=1.02u as=0.1216p ps=1.02u w=0.64u l=0.13u
X126 a_2023_1215.t0 encoder_0.s0_n.t2 VDD.t39 VDD.t5 sg13_lv_pmos ad=0.1596p pd=1.22u as=0.1596p ps=1.22u w=0.84u l=0.13u
X127 a_2449_3973.t0 S2.t4 a_2449_3859.t0 VSS.t0 sg13_lv_nmos ad=0.1216p pd=1.02u as=0.1408p ps=1.08u w=0.64u l=0.13u
X128 V8.t0 switches_0.switch_level_shifter_0.switch_0.en_n.t2 Vout.t0 IOVDD.t2 sg13_hv_pmos ad=0.95p pd=5.38u as=1.7p ps=10.68u w=5u l=0.45u
X129 a_2849_3725.t2 EN.t7 VDD.t22 VDD.t0 sg13_lv_pmos ad=0.1848p pd=1.28u as=0.2044p ps=1.53u w=0.84u l=0.13u
X130 V4.t0 switches_0.switch_level_shifter_4.switch_0.en_n.t3 Vout.t26 IOVDD.t3 sg13_hv_pmos ad=0.95p pd=5.38u as=1.7p ps=10.68u w=5u l=0.45u
X131 switches_0.switch_level_shifter_5.switch_0.en_n.t1 encoder_0.o3.t3 IOVDD.t32 IOVDD.t31 sg13_hv_pmos ad=0.102p pd=1.28u as=0.102p ps=1.28u w=0.3u l=0.4u
X132 a_2885_1349.t0 EN.t6 VSS.t18 VSS.t1 sg13_lv_nmos ad=0.1408p pd=1.08u as=0.1447p ps=1.15u w=0.64u l=0.13u
X133 switches_0.switch_level_shifter_3.switch_0.en_3.t0 switches_0.switch_level_shifter_3.switch_0.en_n.t2 VSS.t47 VSS.t46 sg13_hv_nmos ad=0.102p pd=1.28u as=0.102p ps=1.28u w=0.3u l=0.45u
X134 a_2849_1215.t1 S0.t4 VDD.t14 VDD.t13 sg13_lv_pmos ad=0.1596p pd=1.22u as=0.1596p ps=1.22u w=0.84u l=0.13u
X135 VDD.t26 a_2849_2470.t3 encoder_0.o3.t1 VDD.t10 sg13_lv_pmos ad=0.2044p pd=1.53u as=0.5376p ps=3.2u w=1.12u l=0.13u
X136 VDD.t30 S1.t2 a_2023_4980.t1 VDD.t29 sg13_lv_pmos ad=0.2856p pd=2.36u as=0.1596p ps=1.22u w=0.84u l=0.13u
X137 VDD.t47 a_2023_4980.t3 encoder_0.o8.t1 VDD.t29 sg13_lv_pmos ad=0.2044p pd=1.53u as=0.5376p ps=3.2u w=1.12u l=0.13u
X138 VSS.t21 a_2023_1215.t3 encoder_0.o5.t1 VSS.t4 sg13_lv_nmos ad=0.1447p pd=1.15u as=0.3552p ps=2.44u w=0.74u l=0.13u
X139 a_2023_3725.t2 S1.t4 a_2449_4075.t0 VSS.t0 sg13_lv_nmos ad=0.2176p pd=1.96u as=0.1216p ps=1.02u w=0.64u l=0.13u
X140 a_2449_2820.t0 S0.t3 a_2449_2718.t0 VSS.t0 sg13_lv_nmos ad=0.1216p pd=1.02u as=0.1216p ps=1.02u w=0.64u l=0.13u
X141 VDD.t3 encoder_0.s1_n a_2849_4980.t1 VDD.t2 sg13_lv_pmos ad=0.2856p pd=2.36u as=0.1596p ps=1.22u w=0.84u l=0.13u
X142 a_2885_3859.t0 EN.t7 VSS.t26 VSS.t1 sg13_lv_nmos ad=0.1408p pd=1.08u as=0.1447p ps=1.15u w=0.64u l=0.13u
X143 a_2023_3725.t0 encoder_0.s0_n.t3 VDD.t38 VDD.t19 sg13_lv_pmos ad=0.1596p pd=1.22u as=0.1596p ps=1.22u w=0.84u l=0.13u
X144 switches_0.switch_level_shifter_1.switch_0.en_3.t0 switches_0.switch_level_shifter_1.switch_0.en_n.t2 VSS.t11 VSS.t10 sg13_hv_nmos ad=0.102p pd=1.28u as=0.102p ps=1.28u w=0.3u l=0.45u
X145 VDD.t24 a_2849_4980.t3 encoder_0.o1.t1 VDD.t2 sg13_lv_pmos ad=0.2044p pd=1.53u as=0.5376p ps=3.2u w=1.12u l=0.13u
X146 switches_0.switch_level_shifter_0.switch_0.en_3.t1 switches_0.switch_level_shifter_0.switch_0.en_n.t3 IOVDD.t11 IOVDD.t10 sg13_hv_pmos ad=0.1632p pd=1.64u as=0.1632p ps=1.64u w=0.48u l=0.45u
X147 VSS.t34 a_2849_2470.t3 encoder_0.o3.t0 VSS.t23 sg13_lv_nmos ad=0.1447p pd=1.15u as=0.3552p ps=2.44u w=0.74u l=0.13u
X148 VSS.t22 a_2023_3725.t3 encoder_0.o7.t0 VSS.t4 sg13_lv_nmos ad=0.1447p pd=1.15u as=0.3552p ps=2.44u w=0.74u l=0.13u
X149 a_2885_1565.t0 S0.t4 a_2885_1463.t0 VSS.t1 sg13_lv_nmos ad=0.1216p pd=1.02u as=0.1216p ps=1.02u w=0.64u l=0.13u
C0 encoder_0.o7 S2 0.02199f
C1 switches_0.switch_level_shifter_4.switch_0.en_3 IOVDD 0.40388f
C2 encoder_0.s2_n encoder_0.s1_n 2.2743f
C3 V4 switches_0.switch_level_shifter_4.switch_0.en_3 0.355f
C4 encoder_0.o7 encoder_0.s1_n 0.01865f
C5 encoder_0.o5 V7 0.01281f
C6 V2 V6 0.0154f
C7 V1 V7 0.01534f
C8 S0 encoder_0.o6 0.03795f
C9 EN S1 0.20413f
C10 V3 switches_0.switch_level_shifter_5.switch_0.en_n 0.58754f
C11 encoder_0.o5 encoder_0.s0_n 0.03168f
C12 V1 encoder_0.s0_n 0.01735f
C13 S0 S2 0.58276f
C14 encoder_0.o1 encoder_0.o8 0.01845f
C15 S0 encoder_0.s1_n 8.82809f
C16 V3 EN 0.01422f
C17 V1 V6 0.0166f
C18 encoder_0.o5 V6 0.01303f
C19 V2 EN 0.02139f
C20 Vout switches_0.switch_level_shifter_2.switch_0.en_n 0.46836f
C21 V5 encoder_0.o6 0.0662f
C22 VDD encoder_0.o6 0.55266f
C23 encoder_0.o8 Vout 1.741f
C24 encoder_0.o6 IOVDD 0.91793f
C25 S2 VDD 0.86916f
C26 V2 V3 17.4986f
C27 V1 EN 0.08922f
C28 EN encoder_0.o5 0.05691f
C29 encoder_0.o6 V8 0.02643f
C30 V1 S1 0.01482f
C31 encoder_0.s2_n encoder_0.o3 0.01366f
C32 VDD encoder_0.s1_n 0.74598f
C33 V1 V3 0.01263f
C34 encoder_0.o6 V7 0.01306f
C35 encoder_0.s0_n encoder_0.o6 0.02126f
C36 encoder_0.o3 S0 0.02007f
C37 V1 switches_0.switch_level_shifter_7.switch_0.en_n 0.58785f
C38 encoder_0.s2_n encoder_0.o1 0.04895f
C39 encoder_0.s0_n S2 0.53992f
C40 V1 V2 15.1082f
C41 encoder_0.o6 V6 1.29263f
C42 encoder_0.s0_n encoder_0.s1_n 2.8458f
C43 encoder_0.o3 encoder_0.o4 13.8556f
C44 IOVDD switches_0.switch_level_shifter_0.switch_0.en_3 0.37477f
C45 switches_0.switch_level_shifter_0.switch_0.en_3 V8 0.355f
C46 encoder_0.o1 S0 0.05334f
C47 V5 switches_0.switch_level_shifter_3.switch_0.en_n 0.5876f
C48 switches_0.switch_level_shifter_6.switch_0.en_n encoder_0.o2 0.64626f
C49 switches_0.switch_level_shifter_5.switch_0.en_3 IOVDD 0.40365f
C50 encoder_0.o7 Vout 1.85539f
C51 encoder_0.o1 encoder_0.o4 0.03149f
C52 switches_0.switch_level_shifter_3.switch_0.en_n IOVDD 3.62121f
C53 switches_0.switch_level_shifter_6.switch_0.en_n IOVDD 3.63158f
C54 switches_0.switch_level_shifter_4.switch_0.en_n Vout 0.46839f
C55 V5 encoder_0.o3 0.01821f
C56 encoder_0.o2 encoder_0.o3 12.588f
C57 encoder_0.o3 VDD 0.75811f
C58 EN encoder_0.o6 0.63044f
C59 encoder_0.o3 IOVDD 0.67391f
C60 EN S2 15.9483f
C61 encoder_0.o3 V8 0.02299f
C62 S1 S2 9.15818f
C63 switches_0.switch_level_shifter_0.switch_0.en_n switches_0.switch_level_shifter_0.switch_0.en_3 1.00918f
C64 switches_0.switch_level_shifter_6.switch_0.en_n switches_0.switch_level_shifter_6.switch_0.en_3 1.00918f
C65 EN encoder_0.s1_n 0.15113f
C66 S1 encoder_0.s1_n 5.80682f
C67 V5 encoder_0.o1 0.02016f
C68 V5 switches_0.switch_level_shifter_3.switch_0.en_3 0.355f
C69 encoder_0.o1 encoder_0.o2 11.3214f
C70 encoder_0.o1 VDD 0.42682f
C71 encoder_0.o4 Vout 1.74102f
C72 encoder_0.o3 V7 0.01233f
C73 encoder_0.o8 encoder_0.o7 17.6707f
C74 encoder_0.o1 IOVDD 0.48028f
C75 switches_0.switch_level_shifter_3.switch_0.en_3 IOVDD 0.37506f
C76 switches_0.switch_level_shifter_7.switch_0.en_3 IOVDD 0.37548f
C77 encoder_0.o3 encoder_0.s0_n 0.03661f
C78 encoder_0.o1 V8 0.0241f
C79 encoder_0.o8 S0 0.06276f
C80 encoder_0.o3 V6 0.01235f
C81 encoder_0.o1 V7 0.01421f
C82 switches_0.switch_level_shifter_5.switch_0.en_n switches_0.switch_level_shifter_5.switch_0.en_3 1.00918f
C83 V5 Vout 2.31819f
C84 encoder_0.o2 Vout 1.5089f
C85 encoder_0.o5 encoder_0.o6 9.79658f
C86 encoder_0.o1 encoder_0.s0_n 3.29115f
C87 Vout IOVDD 18.9993f
C88 V1 S2 6.556f
C89 Vout V8 2.3561f
C90 Vout switches_0.switch_level_shifter_1.switch_0.en_3 0.42542f
C91 switches_0.switch_level_shifter_5.switch_0.en_n encoder_0.o3 0.64626f
C92 encoder_0.o1 V6 0.01426f
C93 V4 Vout 2.35583f
C94 V1 encoder_0.s1_n 0.01411f
C95 EN encoder_0.o3 0.60441f
C96 Vout V7 2.34377f
C97 switches_0.switch_level_shifter_6.switch_0.en_3 Vout 0.42502f
C98 V3 switches_0.switch_level_shifter_5.switch_0.en_3 0.355f
C99 encoder_0.o3 S1 0.01073f
C100 V5 encoder_0.o8 2.99398f
C101 switches_0.switch_level_shifter_2.switch_0.en_n IOVDD 3.62689f
C102 encoder_0.o8 VDD 0.37753f
C103 encoder_0.o8 IOVDD 0.60407f
C104 V3 encoder_0.o3 1.34618f
C105 encoder_0.o8 V8 2.46544f
C106 Vout V6 2.34275f
C107 Vout switches_0.switch_level_shifter_0.switch_0.en_n 0.4684f
C108 EN encoder_0.o1 0.77673f
C109 V2 switches_0.switch_level_shifter_6.switch_0.en_n 0.58754f
C110 encoder_0.o1 S1 0.0298f
C111 encoder_0.s2_n S0 0.52856f
C112 encoder_0.o7 S0 0.01748f
C113 V2 encoder_0.o3 0.03187f
C114 encoder_0.o8 V7 0.4468f
C115 Vout switches_0.switch_level_shifter_2.switch_0.en_3 0.42542f
C116 encoder_0.o8 encoder_0.s0_n 3.27479f
C117 switches_0.switch_level_shifter_5.switch_0.en_n Vout 0.46835f
C118 encoder_0.o5 switches_0.switch_level_shifter_3.switch_0.en_n 0.65169f
C119 switches_0.switch_level_shifter_2.switch_0.en_n V6 0.58754f
C120 encoder_0.o1 switches_0.switch_level_shifter_7.switch_0.en_n 0.65528f
C121 switches_0.switch_level_shifter_7.switch_0.en_n switches_0.switch_level_shifter_7.switch_0.en_3 1.00918f
C122 S2 encoder_0.o6 0.01416f
C123 switches_0.switch_level_shifter_4.switch_0.en_n encoder_0.o4 0.64626f
C124 encoder_0.o8 V6 0.72102f
C125 V1 encoder_0.o3 0.03514f
C126 encoder_0.o8 switches_0.switch_level_shifter_0.switch_0.en_n 0.64626f
C127 encoder_0.o6 encoder_0.s1_n 0.01137f
C128 switches_0.switch_level_shifter_2.switch_0.en_n switches_0.switch_level_shifter_2.switch_0.en_3 1.00918f
C129 encoder_0.o4 S0 0.03039f
C130 S2 encoder_0.s1_n 2.72815f
C131 V3 Vout 2.34351f
C132 encoder_0.s2_n encoder_0.o2 0.02197f
C133 encoder_0.s2_n VDD 0.65539f
C134 Vout switches_0.switch_level_shifter_1.switch_0.en_n 0.46836f
C135 V5 encoder_0.o7 0.06463f
C136 V1 encoder_0.o1 1.87765f
C137 V1 switches_0.switch_level_shifter_7.switch_0.en_3 0.355f
C138 encoder_0.o2 encoder_0.o7 0.01901f
C139 encoder_0.o7 VDD 0.43416f
C140 switches_0.switch_level_shifter_7.switch_0.en_n Vout 0.46594f
C141 encoder_0.o7 IOVDD 0.60434f
C142 switches_0.switch_level_shifter_4.switch_0.en_n IOVDD 3.63039f
C143 encoder_0.o7 V8 0.02941f
C144 EN encoder_0.o8 0.74875f
C145 V2 Vout 2.34248f
C146 encoder_0.o8 S1 0.01276f
C147 encoder_0.o2 S0 0.05641f
C148 S0 VDD 0.99195f
C149 V4 switches_0.switch_level_shifter_4.switch_0.en_n 0.58754f
C150 encoder_0.s2_n encoder_0.s0_n 0.5267f
C151 encoder_0.o7 V7 1.35454f
C152 V1 Vout 2.31819f
C153 V5 encoder_0.o4 0.04781f
C154 encoder_0.o2 encoder_0.o4 0.02723f
C155 encoder_0.o4 VDD 0.18899f
C156 encoder_0.o7 encoder_0.s0_n 0.05777f
C157 encoder_0.o4 IOVDD 0.7531f
C158 switches_0.switch_level_shifter_4.switch_0.en_3 Vout 0.44236f
C159 encoder_0.o4 V8 0.02361f
C160 encoder_0.o7 V6 0.04386f
C161 encoder_0.o3 encoder_0.o6 0.021f
C162 V4 encoder_0.o4 1.66952f
C163 encoder_0.s0_n S0 7.83341f
C164 encoder_0.o4 V7 0.01235f
C165 V5 encoder_0.o2 0.01823f
C166 V5 VDD 0.09159f
C167 encoder_0.o2 VDD 0.50033f
C168 V5 IOVDD 0.67747f
C169 encoder_0.o2 IOVDD 0.92216f
C170 VDD IOVDD 2.71242f
C171 V5 V8 0.03035f
C172 encoder_0.o2 V8 0.02255f
C173 VDD V8 5.01641f
C174 encoder_0.s2_n EN 10.8108f
C175 V4 V5 11.1294f
C176 IOVDD V8 0.81946f
C177 IOVDD switches_0.switch_level_shifter_1.switch_0.en_3 0.37506f
C178 encoder_0.o4 V6 0.01237f
C179 V4 VDD 0.09405f
C180 encoder_0.s2_n S1 5.83902f
C181 EN encoder_0.o7 0.68928f
C182 V4 IOVDD 4.43194f
C183 encoder_0.o1 encoder_0.s1_n 0.01228f
C184 V4 V8 0.14046f
C185 V5 V7 0.02293f
C186 encoder_0.o2 V7 0.01233f
C187 VDD V7 0.0939f
C188 encoder_0.o2 encoder_0.s0_n 0.01834f
C189 encoder_0.s0_n VDD 1.6479f
C190 IOVDD V7 0.81897f
C191 switches_0.switch_level_shifter_6.switch_0.en_3 IOVDD 0.40455f
C192 EN S0 1.48066f
C193 V7 V8 20.3046f
C194 switches_0.switch_level_shifter_1.switch_0.en_3 V7 0.355f
C195 S0 S1 7.80599f
C196 Vout encoder_0.o6 1.50889f
C197 encoder_0.o7 switches_0.switch_level_shifter_1.switch_0.en_n 0.64626f
C198 V4 V7 0.02764f
C199 V5 V6 15.2579f
C200 encoder_0.o2 V6 0.01235f
C201 VDD V6 0.09226f
C202 IOVDD V6 0.81846f
C203 EN encoder_0.o4 0.05838f
C204 IOVDD switches_0.switch_level_shifter_0.switch_0.en_n 3.62554f
C205 V6 V8 0.03646f
C206 switches_0.switch_level_shifter_0.switch_0.en_n V8 0.58754f
C207 V4 V6 0.03873f
C208 encoder_0.o6 switches_0.switch_level_shifter_2.switch_0.en_n 0.64626f
C209 encoder_0.s2_n V1 0.02833f
C210 switches_0.switch_level_shifter_2.switch_0.en_3 IOVDD 0.37506f
C211 V3 encoder_0.o4 0.42674f
C212 V6 V7 17.7727f
C213 switches_0.switch_level_shifter_5.switch_0.en_n IOVDD 3.6319f
C214 encoder_0.o5 encoder_0.o7 0.01243f
C215 encoder_0.o8 encoder_0.o6 0.0435f
C216 switches_0.switch_level_shifter_3.switch_0.en_n switches_0.switch_level_shifter_3.switch_0.en_3 1.00918f
C217 encoder_0.o8 S2 0.02961f
C218 EN encoder_0.o2 0.66938f
C219 EN VDD 2.51565f
C220 encoder_0.o2 S1 0.01862f
C221 S1 VDD 0.90057f
C222 Vout switches_0.switch_level_shifter_0.switch_0.en_3 0.44276f
C223 switches_0.switch_level_shifter_4.switch_0.en_n switches_0.switch_level_shifter_4.switch_0.en_3 1.00918f
C224 V2 encoder_0.o4 0.70223f
C225 encoder_0.o1 encoder_0.o3 0.0645f
C226 V1 S0 0.02182f
C227 encoder_0.o8 encoder_0.s1_n 0.01457f
C228 V3 V5 0.04274f
C229 EN V4 0.01024f
C230 V3 VDD 0.09177f
C231 switches_0.switch_level_shifter_5.switch_0.en_3 Vout 0.42503f
C232 V3 IOVDD 0.93102f
C233 V1 encoder_0.o4 3.13226f
C234 encoder_0.o5 encoder_0.o4 5.16623f
C235 switches_0.switch_level_shifter_6.switch_0.en_n Vout 0.46835f
C236 switches_0.switch_level_shifter_3.switch_0.en_n Vout 0.46594f
C237 V3 V8 0.02586f
C238 switches_0.switch_level_shifter_1.switch_0.en_n IOVDD 3.62688f
C239 switches_0.switch_level_shifter_2.switch_0.en_3 V6 0.355f
C240 switches_0.switch_level_shifter_1.switch_0.en_n switches_0.switch_level_shifter_1.switch_0.en_3 1.00918f
C241 EN encoder_0.s0_n 0.4766f
C242 switches_0.switch_level_shifter_7.switch_0.en_n IOVDD 3.6215f
C243 V3 V4 19.8899f
C244 V2 V5 0.0327f
C245 encoder_0.s0_n S1 2.59456f
C246 V2 encoder_0.o2 1.28795f
C247 V2 VDD 0.09246f
C248 encoder_0.o3 Vout 1.8554f
C249 V2 IOVDD 0.85893f
C250 V3 V7 0.01541f
C251 V2 V8 0.02371f